17
 energy: -67.008158143051 gnorm: 0.000510639072 xtb: 6.7.1 (edcfbbe)
F            1.00919374571481        0.29653044436562        0.22278218266653
C            2.31115667495779        0.04577394662216        0.04763943285441
C            2.70143278035019       -1.39228382369832        0.47428052409104
C            2.19842983760648       -2.53775169523506       -0.42230324158435
F            2.80591220714342       -2.34195178712961       -1.64322942456803
F            2.79538733888504       -3.67034693713332        0.06693178827575
B            0.49528668857925       -2.68960057765319       -0.55598770742787
F           -0.04838943981880       -2.62914423287047        0.70840204986245
F            0.04774799341469       -1.62680251901015       -1.31744759653079
F            0.19247211184348       -3.88181212913620       -1.16176226882814
F            4.06789951705884       -1.39668548253873        0.54855873140443
F            2.28784358279155       -1.55736718000166        1.74683838083281
C            2.72895686762320        0.48988876649823       -1.38003923102889
F            2.66630447716230        1.83195781367586       -1.44196192343467
F            3.99364609800767        0.16864382684848       -1.65006190688658
F            1.96417253890234        0.03331014340366       -2.35035021484624
F            2.95942697977777        0.90315142299273        0.88940042514815
