25
 energy: -96.475371298493 gnorm: 0.000362746925 xtb: 6.7.1 (edcfbbe)
O            1.62644317650435        0.59754858295092       -0.93780594454494
C            2.60015564191139        0.59947959980699       -0.23346398349616
O            3.18356365831276        1.31348822563295        0.53103433915499
C            3.41587234535928       -0.97878728705099       -0.36495639690089
C            2.76839965528674       -2.05652536585378        0.50148255586679
C            1.28431728132403       -2.39447746150438        0.19721040852363
C            0.86554490483425       -2.87289538579467       -1.22393440464989
C            1.54040062248732       -4.15717703500790       -1.80401231470492
C            1.28589258115205       -5.52360453135294       -1.08976164778795
C           -0.19823828498399       -5.97116543815770       -0.90980029690814
F           -0.93253016579903       -5.72870587584489       -1.98965798581970
F           -0.22392145039041       -7.29051833133898       -0.70770355128429
F           -0.78051537434174       -5.40508668766216        0.13448440701062
F            1.87018836417198       -6.46517511198917       -1.86760429995100
F            1.89572805104872       -5.59045582724084        0.09959205496831
F            1.05785582839419       -4.30271760705335       -3.06141249653024
F            2.86265064747558       -4.01619284092734       -1.92823477546699
F           -0.46392535026261       -3.16739338100350       -1.14197788549189
F            0.96439605858007       -1.91792378020998       -2.14248529591281
F            0.92977361171042       -3.41749675043701        1.03181433671950
F            0.48366357634496       -1.37963213381443        0.53658371540541
F            3.43510373128921       -3.26171427484167        0.46884603467403
F            2.80552803236621       -1.68595579086403        1.79922898316793
F            3.41568360327675       -1.42810624304890       -1.66486246572453
F            4.73539925394744       -0.91508926739213       -0.01373309031718
