8
 energy: -19.351883160588 gnorm: 0.000275046180 xtb: 6.7.1 (edcfbbe)
S            1.13550152524127       -0.00211386149296        0.01618381675105
C            0.50640168286018       -1.55178193008695       -0.76087541019777
O            0.59486237916822       -0.02787478301788        1.37545458604578
O            0.59487079200660        1.07176286591272       -0.81752998762259
O            2.59200124890260       -0.12591312673820       -0.04588921851374
H            0.87901426594117       -2.38412179448406       -0.17989968648644
H           -0.57399452939856       -1.51274706025894       -0.74130772042538
H            0.87902263527852       -1.58408030983373       -1.77540637955091
