14
 energy: -55.410400666558 gnorm: 0.000807274477 xtb: 6.7.1 (edcfbbe)
F            1.06053507469388        0.16172743589481        0.08433963280173
C            2.40955450745093        0.08401961625701        0.03123988606716
C            2.88038394616775       -0.53887028441760       -1.29714484715944
F            2.47855380776379        0.33255017254628       -2.28111961405202
F            4.25046297046562       -0.43643754569353       -1.29994524518989
B            2.34270879817833       -2.14642047332626       -1.57369856790951
F            2.85998715700173       -2.95193493782192       -0.58157208988789
F            0.96476469549651       -2.15908786268976       -1.53211559091330
F            2.79120643852265       -2.55465234662249       -2.80870236289579
C            2.92852974976788        1.52186551108836        0.30167133723560
F            2.47176301223587        1.96662104001817        1.48693027168821
F            4.25666667770762        1.60040171045947        0.36430884325083
F            2.51788315857410        2.40310427926856       -0.60861233962432
F            2.79305000597336       -0.65958631496110        1.09276068658864
