21
 energy: -81.832558840949 gnorm: 0.000205022398 xtb: 6.7.1 (edcfbbe)
F            0.87961192124497       -0.67886206745961        0.28367377987712
C            2.17594385953655       -0.34305422231676        0.11506596874909
F            2.33497875804357       -0.14936309098304       -1.19125208167991
F            2.32982595232605        0.83082022034483        0.72135905331683
C            3.13528493231918       -1.40016796079926        0.65931615827429
F            2.87636352211984       -1.58588781143056        1.97183064786672
F            2.88127779251265       -2.57461404165435        0.04254049681960
S            4.97086158754154       -0.92827672786031        0.42265780284269
O            5.11261125934939       -0.82978468595793       -0.99541238602672
O            5.10575544373020        0.27946910839536        1.17367162030693
N            5.57068969075640       -2.22166940453624        1.08583336781937
S            7.14097783419117       -2.29811695032604        1.11442329846589
O            7.77872350583179       -2.52972193438553       -0.14270412818172
O            7.79381370082025       -1.40510758404351        2.01841868263705
C            7.25514720477826       -3.98988032913284        1.99358959439645
F            6.62106242585520       -3.93087179146799        3.18469357249169
F            6.61982401996274       -4.92974387820784        1.26063242426079
C            8.69592867293485       -4.44099106049690        2.22743514081951
F            9.37066037442420       -4.56939782658760        1.08836829213333
F            9.36531604069018       -3.59215200906811        3.00248063436918
F            8.77382150103101       -5.64098595202589        2.84030806044190
