9
 energy: -35.507598075468 gnorm: 0.000862393616 xtb: 6.7.1 (edcfbbe)
F            1.38599693833458       -0.36466990016040        0.16002670091546
S            2.98110426951570        0.13494245151358        0.09412221761824
O            3.51845102101765       -0.70531797999669       -0.91753440378416
O            2.83431568642044        1.52659374186109       -0.16550334582938
N            3.34239879223131       -0.23923917155836        1.58959788016270
S            4.89317755826824       -0.18314496780940        1.67070537997250
F            5.34665054332467       -1.72134730463033        1.22294138920365
O            5.48938331696159        0.64754878998956        0.67563212578491
O            5.40157187392582       -0.10443565920903        3.00302205595607
