25
 energy: -91.822224304996 gnorm: 6.294638049400 xtb: 6.7.1 (edcfbbe)
C            1.06257000000000       -0.04728000000000       -0.06204000000000
C            0.55590000000000        1.36024000000000        0.20736000000000
F            0.99923000000000        2.18018000000000       -0.74136000000000
F           -0.77410000000000        1.36024000000000        0.20736000000000
P            1.16591000000000        1.92664000000000        1.83708000000000
C            0.61664000000000        0.63533000000000        0.66245000000000
C            0.51376000000000        1.23004000000000       -0.73259000000000
F            1.70355000000000        1.69222000000000       -1.10635000000000
F            0.11457000000000        0.29156000000000       -1.58628000000000
F           -0.36685000000000        2.22673000000000       -0.72580000000000
F            1.49725000000000       -0.36135000000000        0.65566000000000
F           -0.57315000000000        0.17316000000000        1.03621000000000
C            2.20398000000000        3.21564000000000        2.61796000000000
C            1.37376000000000        3.99238000000000        3.62683000000000
F            0.92064000000000        3.16169000000000        4.56146000000000
F            2.12821000000000        4.92920000000000        4.19435000000000
F            0.34600000000000        4.56591000000000        3.00742000000000
F            3.23175000000000        2.64211000000000        3.23737000000000
F            2.65710000000000        4.04632000000000        1.68333000000000
F            0.61925000000000        0.91559000000000        3.00693000000000
F            2.80591000000000        1.92664000000000        1.83708000000000
F            0.61924000000000        3.44528000000000        2.12775000000000
F            0.61924000000000       -0.45892000000000       -1.24648000000000
F            0.61924000000000       -0.86721000000000        0.88667000000000
F            2.39257000000000       -0.04728000000000       -0.06204000000000
