17
 energy: -36.207024691529 gnorm: 0.000694456633 xtb: 6.7.1 (edcfbbe)
O            1.18692295763904        0.15302598395389       -0.50975203335777
C            0.40856893307322        0.15412170036174       -1.53622687100754
O            0.81351186595000       -0.03519557320839       -2.67422180169606
C           -1.08638828097141        0.34234492200542       -1.32498141075681
C           -1.86502278498057       -0.15182328820059       -2.37297721374905
C           -3.24219957398860       -0.08120950794410       -2.36550210848580
C           -3.88166787180238        0.51975356735126       -1.29371046679936
C           -3.12620613929099        1.03025369999025       -0.25879206659158
C           -1.73370299257579        0.94865009311739       -0.23803244196693
C           -1.10363125570013        1.55986918177826        1.01911304847112
O           -1.75954465807865        2.39909459265754        1.62468027221289
O            0.03536303308598        1.12547714796064        1.39589630442016
H            0.65922562986864        0.55907125142635        0.44736014969506
H           -1.34212101850423       -0.59744634630528       -3.20763696603284
H           -3.81425968584207       -0.48670694942616       -3.19028086786249
H           -4.96158759320455        0.59219742328069       -1.26867119397987
H           -3.60126056467754        1.52177210120106        0.57875566748688
