18
 energy: -41.236473190157 gnorm: 0.000668903686 xtb: 6.7.1 (edcfbbe)
Cl          -1.90207123265512        1.75894339107728       -1.61741587942703
C           -0.92313458069159        0.60313185682013       -0.79359481120342
C           -1.53875877510707       -0.55328400938004       -0.28008488280969
O           -2.83439072423712       -0.71510322987477       -0.53893071073661
C           -3.54265927766434       -1.72742147732348        0.15013142647515
C           -3.46270115577060       -1.56266031259321        1.76027782492863
O           -2.79993016173833       -0.60298569090971        2.14484812836882
O           -4.07456826639503       -2.44072860582390        2.36409372376465
C           -0.70651201692295       -1.47628757072443        0.36691977029928
C            0.64599486129071       -1.24894224801134        0.50710506113457
C            1.20845551527820       -0.09553884760244       -0.01312740905723
C            0.42882043730057        0.84249458450059       -0.66744739068197
Cl           2.91199074615884        0.18558182112182        0.14760955210061
H           -4.58194192163792       -1.62481214059262       -0.16538653274264
H           -3.18306262089154       -2.72640958958639       -0.12459660402184
H           -1.13878953458068       -2.36227940036791        0.79998865966780
H            1.26446411563058       -1.96694950344221        1.02360160929153
H            0.86097459263235        1.74494097271408       -1.07018153534928
