14
 energy: -25.885418378173 gnorm: 0.000577310140 xtb: 6.7.1 (edcfbbe)
C            0.99931438397502       -0.01625471823694        0.08257135390661
C            0.17117218684160        0.76796282797364       -0.98685998098203
C           -0.95877755462902        1.48507239614469       -0.61796898724157
C           -1.69323063301787        2.18046557486933       -1.56150756380822
C           -1.30308392285964        2.16544946145560       -2.89126101490188
C           -0.17663417343646        1.45237572906010       -3.26983878208553
C            0.55357133630164        0.75927515070171       -2.32132958269514
O            0.56770027019432        0.05202622151676        1.24275655458920
O            1.99101492116090       -0.61997967817684       -0.35221026924651
H           -1.24295803361570        1.48126235502570        0.42562227504672
H           -2.57509404517718        2.73910612217613       -1.26677335075186
H           -1.87727768519650        2.70979101537182       -3.63300803612198
H            0.12738745516889        1.44153434762866       -4.31103225875897
H            1.43627549429000        0.19576319448964       -2.59178035694883
