8
 energy: -32.200516122260 gnorm: 0.000673688402 xtb: 6.7.1 (edcfbbe)
F            1.04156244831842       -0.09241528304010       -0.14319062621129
C            2.40009329055120       -0.06270840213066       -0.02813106028054
F            2.79955062863729       -1.27313327541923       -0.51318016917115
F            2.79388979703667        0.82285645031520       -0.98764981259352
B            2.96068197484549        0.28884745264006        1.51876497459246
F            2.49815566591951        1.53927268328777        1.89952862456644
F            2.49294353539149       -0.67064882008495        2.40369892399177
F            4.34756265929993        0.28439919443192        1.51362914510583
