5
 energy: -20.627024078254 gnorm: 0.000545153683 xtb: 6.7.1 (edcfbbe)
F            1.06813695073191       -0.03106399326303        0.08178940468666
B            2.45842817617963       -0.03106162913047        0.08179002237716
F            2.92185933069324       -0.88142357936274        1.07930002778520
F            2.92185967633407       -0.46974893697014       -1.15340003144327
F            2.92185586606115        1.25798813872638        0.31947057659424
