24
 energy: -43.509041912870 gnorm: 0.000825245316 xtb: 6.7.1 (edcfbbe)
Cl           2.39561323377719        0.11327315124678       -0.76513637024290
C            0.72623324081133       -0.17007854844399       -0.36416176315604
C           -0.10812874537906        0.90288466341975       -0.11726872133189
C           -1.45022961611600        0.73352338594008        0.19998870190142
C           -1.96873672637156       -0.57907223918192        0.23494102771981
O           -3.21719601972774       -0.99245509152240        0.50643301846356
C           -4.41610472999221       -0.29199620581640        0.14560784373315
C           -4.90295308500331        0.88788447912016        1.14207023061866
O           -5.67212013937735        1.69389046142239        0.61498745629907
O           -4.49516977858973        0.80473033589402        2.29978653385702
C           -4.43046585117332        0.11373183404647       -1.32388472466306
C           -1.08380558601704       -1.64632877803475        0.01169762326980
C            0.25069389116826       -1.46407304372460       -0.27830852852252
C           -2.23668345527715        1.94892931240579        0.57222531401658
H            0.29779510059639        1.90398885012600       -0.15375750778555
H           -5.17940084682176       -1.06709511238595        0.30860800097090
H           -4.64808038387008       -0.73421647569752       -1.97527018155156
H           -5.20265534434783        0.87178969338730       -1.44371615737313
H           -3.47016498442044        0.53180948070597       -1.62210766046390
H           -1.49104579004933       -2.64415558322847        0.07797576584841
H            0.90333383115648       -2.30714887421190       -0.44749389664277
H           -2.67612483592396        1.80804726946619        1.55923283654772
H           -1.59247230500543        2.82640858078806        0.58883822062102
H           -3.06436107404585        2.13811845427917       -0.10763706213362
