94
 energy: -143.135757030014 gnorm: 0.000535754399 xtb: 6.7.1 (edcfbbe)
C            1.23100075107591        1.36882183523302       -0.06822017452206
C            1.25238525532660       -0.15326372069875       -0.14793411278193
C            1.81056946966049       -0.81775826333895        1.11170293608995
C            0.98749577190036       -0.57859231664601        2.37839751453963
C           -0.42281435978293       -1.15647900415383        2.28565259019478
C           -1.13220867206305       -1.20043554003694        3.64008779152060
O           -0.44578086107571       -1.90200371379277        4.66235722775357
C           -0.14974090376078       -3.25352868189765        4.41893059246585
C           -1.36657569217886       -4.15484382084528        4.17368886657426
O           -1.75376300829251       -4.05596629393475        2.81920058765778
C           -2.74124996316437       -4.97427619852349        2.40664175608043
C           -2.20783279004086       -6.37336993590045        2.04245060359390
O           -1.69132688181293       -6.44084389775470        0.73288023250734
C           -0.28834478441342       -6.55374277311748        0.59889331114501
C            0.48991078676541       -5.25001779954994        0.86838232146410
O            0.89033199199754       -4.54271757299131       -0.28142790428825
C           -0.11417025668679       -3.81436558425766       -0.94986930936385
C           -1.05195585646846       -4.66105891615802       -1.83138830210847
O           -0.40000222103696       -5.65300628495707       -2.59083717062208
C            0.61468303101191       -5.22407967567640       -3.47265986083689
C            0.16473794130939       -4.16695407466707       -4.49841242215454
O           -1.08538403071313       -4.41457551191715       -5.09951668214146
C           -1.10393009472836       -5.37166564762340       -6.13224048630820
C           -1.03098055442829       -6.83623520924928       -5.65126953047060
O            0.27011667010464       -7.38932474156925       -5.72446848846081
C            0.53259096508113       -8.21038525557861       -6.83964303947613
C            0.68827597614789       -7.43583458150620       -8.16222703002164
O            1.21765861102055       -8.23343238129011       -9.19301253052603
C            0.29152212150115       -8.75390719062833      -10.12623161919479
C           -0.59236173205844       -9.89117203991696       -9.58142541026075
O           -1.35228175117854      -10.48938597564772      -10.60055641796931
C           -0.84758520313777      -11.71182260920887      -11.12164864853000
C            0.53557395833761      -11.65411105763925      -11.77764830118304
O            0.69759245134502      -10.60938065918836      -12.72716912010999
C           -0.17296214219193      -10.64510859565505      -13.83766447857456
C           -0.20687115071431      -11.97838613395141      -14.59635180414871
O           -1.12877193759483      -12.85311811482969      -14.03022354232502
S           -0.48096366458776      -14.39156445549959      -14.10834166260229
O            0.72981699141102      -14.31190622347439      -13.30243138720140
O           -1.51964142366045      -15.21406462909787      -13.53591454599253
O           -0.22356412130619      -14.60890739999553      -15.51701529675659
H            0.53961252458462        1.71128324814418        0.69739656646686
H            0.91682425052349        1.79211165442265       -1.01987735990868
H            2.22214166008187        1.75169671695910        0.16641580609712
H            0.24415381361362       -0.52212695408681       -0.34250540474706
H            1.87717152400982       -0.45260562854327       -0.99308207739086
H            1.87631386957446       -1.89377943525161        0.93122710782119
H            2.82556067848906       -0.44892688732491        1.28097246447824
H            1.50257945778275       -1.04771724050760        3.21988966709982
H            0.93029877525085        0.48974514059809        2.59393521347796
H           -1.03966925602727       -0.55325335446718        1.61790799119141
H           -0.38146609955444       -2.16585091050369        1.87531907204283
H           -1.23125937509271       -0.18964620256192        4.04587395725225
H           -2.13584404090324       -1.62306392485023        3.49955747293030
H            0.53740141663277       -3.36734102134033        3.57077111477058
H            0.35691352937137       -3.58513379768806        5.32913916493361
H           -1.08959808278873       -5.18857664902808        4.42198497405115
H           -2.19766505667748       -3.85271086064429        4.82842323452345
H           -3.50976253585107       -5.07164323725656        3.18524490562125
H           -3.19230360377549       -4.53921892226576        1.51106058885940
H           -1.45876527198623       -6.69761252980114        2.77462969841361
H           -3.05431183206289       -7.07027692054076        2.07940850791701
H            0.08071670086414       -7.34303070366831        1.26855776123568
H           -0.12152033702091       -6.85986877397646       -0.43650318004396
H           -0.11547023774118       -4.60052367999865        1.51382272888229
H            1.42927190443085       -5.48903483844387        1.37579036395815
H           -0.73322787911527       -3.25992529845430       -0.22919231816194
H            0.43445846130708       -3.09422245372306       -1.56434511861916
H           -1.75064672958993       -5.22031542696912       -1.20553592326593
H           -1.62252579999004       -3.98075893416468       -2.47894005492638
H            1.47134915163527       -4.82001380512796       -2.91539439317917
H            0.92488868676375       -6.13426048735599       -3.98907712896461
H            0.04700656477613       -3.19354871360300       -4.01139135208222
H            0.95091626146726       -4.08156395296302       -5.26270549907867
H           -2.05692975448174       -5.20025035406736       -6.63987610937025
H           -0.28136185367708       -5.17770547889169       -6.83426239489431
H           -1.32590159612069       -6.86164827353333       -4.59704712952810
H           -1.73098776538286       -7.45072232126009       -6.22794759894779
H            1.48171236068870       -8.70441354524250       -6.61792807184661
H           -0.24664184769207       -8.97733638101946       -6.93867557955645
H           -0.27232022671211       -6.99773104585061       -8.46454005060654
H            1.40940704834403       -6.62531027485899       -7.99545523858778
H           -0.35860958465132       -7.95311550852341      -10.50693639133527
H            0.89071625046635       -9.13247175665823      -10.95631869888871
H            0.03727572993564      -10.62780431375087       -9.06636828337784
H           -1.31684942581063       -9.48468177072091       -8.86236071029608
H           -0.80394923899579      -12.46818521466060      -10.32486525668677
H           -1.58340907672886      -12.02958961421527      -11.86200161983065
H            1.31377880193798      -11.45595393268344      -11.03421024790520
H            0.71361033352632      -12.63993853505885      -12.23182610973701
H           -1.19723233141121      -10.39641224669297      -13.52823007254062
H            0.20298905590348       -9.85609008480974      -14.49640417936102
H           -0.47976543728627      -11.79090798462187      -15.64530812557882
H            0.78008677828173      -12.45288593095593      -14.57954373527756
