15
 energy: -34.392388284844 gnorm: 0.000526545330 xtb: 6.7.1 (edcfbbe)
I           -1.31062794554846        0.14884980771790        0.01520241123126
C            0.78342128990603        0.02045384253118        0.01621310648828
C            1.42898081639487       -1.18832324066479        0.03037204682952
C            2.81044594266454       -1.22145563670010        0.02000034483864
C            3.54521752819990       -0.04997891158699       -0.00052905553925
C            2.88240047062081        1.16921286437871       -0.01030421315423
C            1.49981264502205        1.21002994431896       -0.00268761275778
S            0.68494093859915       -2.84642033662106        0.04619297851690
O            1.15391674156299       -3.40698635388510       -1.21396504530582
O            1.27971529425291       -3.44591819846592        1.23319734041856
O           -0.75785201383233       -2.68441888827679        0.12572706249714
H            3.27123841319633       -2.19650662399863        0.03072874538055
H            4.62637951931263       -0.07846741550095       -0.00862141632413
H            3.44271723433084        2.09474895730470       -0.02458020552487
H            0.97990312531776        2.15794018944887       -0.01162648759476
