15
 energy: -45.247687288489 gnorm: 0.000661041482 xtb: 6.7.1 (edcfbbe)
N            0.90401500538768        0.14074417696552       -0.12735774053372
O            0.38793232991165       -0.50093608275512       -1.02006469541504
O            0.31495721720385        0.83257725241212        0.67154133083538
C            2.33268398250431        0.09912833673109       -0.05685034346867
N            3.07018300680293        1.21796924166366       -0.10503877665804
C            4.33700921872584        0.83144619403870       -0.08512068883180
N            4.42676400691506       -0.50848059569578       -0.04960479513928
C            3.16297556179513       -1.02538488423319       -0.03551079945425
N            2.90251711111759       -2.39280172375395        0.08990507131473
O            3.84933750574892       -3.15345956755151       -0.05300990736637
O            1.76546052183728       -2.74040786304698        0.35797987984541
C            5.74336799215630        1.60671645726863       -0.13603667982366
O            6.65506219844652        0.79236153636764        0.00519444181623
O            5.70430602252167        2.80692601842644       -0.31663045949708
H            5.32023831892528       -0.98735849683728       -0.01137583762382
