7
 energy: -31.462690042921 gnorm: 0.000031134432 xtb: 6.7.1 (edcfbbe)
F            1.19399987774503       -0.02410009407285       -0.12217697240886
P            2.77001168857848        0.34288838363795        0.06436808325452
F            2.37452714094464        1.48730404262963        1.15395371982597
F            4.34601626958975        0.70987715978883        0.25097109737688
F            3.16545666442442       -0.80150786021344       -1.02525138254043
F            2.65563707059605        1.44241425179254       -1.13198107003390
F            2.88443128812163       -0.75665588356266        1.26069652452583
