10
 energy: -24.496600472479 gnorm: 0.000177772489 xtb: 6.7.1 (edcfbbe)
N            1.09664814717922        0.03041448641205        0.09526715839075
O            0.48179330096257       -1.03921855117369        0.09738859280389
O            0.50057268167529        1.12189070988514        0.08790031356531
C            2.46539891415358        0.04826751061518        0.10067753826186
N            3.24844986833628       -1.07579897268925        0.10964332895905
C            4.46588880498234       -0.58740662153115        0.11208114993446
N            4.57269864908582        0.76469990514666        0.10510635123825
C            3.30988518477308        1.17551253896841        0.09800005099160
H            5.33904637917071       -1.21850702435463        0.11896852851578
H            3.03350806968112        2.21305601872129        0.09134698733905
