31
 energy: -45.498476262001 gnorm: 0.000402920388 xtb: 6.7.1 (edcfbbe)
C           -1.06398554131542       -0.00396050782850       -1.30137027630316
C           -1.50719939287056        0.58591836461999        0.04130185798566
C           -0.90597457649054        1.96768637438692        0.29014119755414
C           -1.53911403383541        3.05310940251384       -0.57129502720593
O            0.31137509470670       -0.20400825347047       -1.32478371335296
P            1.24194525547477        0.83746613804798       -2.27351293110501
O            2.40274715050720        1.26090020007703       -1.45457227707678
O            1.70976706497165       -0.24467733086894       -3.45117312521119
C            2.20005877983480       -1.51507092753671       -3.14897901261756
C            3.47493951367530       -1.51708938605210       -2.29667159169763
C            3.19806228733301       -1.67151355077264       -0.80333755608831
C            2.81043405045150       -3.09352668819623       -0.41404601445765
O            0.35743414396481        1.80282041308361       -2.96623449537107
H           -1.35137516697965        0.66579511538091       -2.11894258204657
H           -1.55745379416384       -0.97928859646711       -1.45153780904764
H           -2.60098382465488        0.63469138337267        0.06379581059974
H           -1.17726614695394       -0.09399523907227        0.83247314026277
H           -1.02380417472405        2.22097803217290        1.35000241552445
H            0.16057091532534        1.91957109790306        0.06313534797500
H           -2.62681335188387        3.03687729384303       -0.48723433901966
H           -1.18145226085015        4.03390872865740       -0.26252801925752
H           -1.25409625497491        2.90335186411222       -1.60834480313614
H            1.41957041448185       -2.10330765834821       -2.64765440415829
H            2.40466025682527       -1.98121403116596       -4.12594480008062
H            4.14004956511341       -2.32023057008904       -2.63534850249271
H            3.96742591016396       -0.55952729408576       -2.46377785640106
H            4.09409640277984       -1.38282766704518       -0.24725607567266
H            2.40295413122100       -0.97740606708874       -0.53872943996776
H            2.64651656521947       -3.16224966013693        0.66030788255155
H            1.89368328739091       -3.39628140545929       -0.91468236251239
H            3.59720773025925       -3.79855957448649       -0.68764063816710
