15
 energy: -58.624662409591 gnorm: 0.000751554641 xtb: 6.7.1 (edcfbbe)
C            1.27643718428836        0.15927936336859       -0.32649331439262
F            0.44266588799719       -0.55966713029766        0.44318347159147
F            0.95919128893211        1.44310006202571       -0.13663752160759
F            0.97649771422153       -0.13717389428919       -1.59410374066565
S            3.09020454194454       -0.19295836782325        0.07689458536722
O            3.22475510935395        0.20649740604958        1.44467180055619
O            3.24600675926088       -1.58604892636016       -0.21121831070448
N            3.69486312913181        0.79853764213450       -0.98800541614961
S            5.26821062443142        0.84965774911355       -1.05675648447511
O            5.91809893439134        1.47881981211807        0.05238938739440
O            5.90484959318377       -0.30514773375070       -1.61283576831912
C            5.36826045745462        2.13816331437202       -2.43748027442024
F            4.74725023869148        1.73390687935396       -3.54912955087674
F            4.81761946795276        3.30161215440167       -2.07971864899357
F            6.63848906876425        2.40569166958328       -2.78262021430458
