18
 energy: -70.228760354353 gnorm: 0.000434793630 xtb: 6.7.1 (edcfbbe)
F            0.98652396034267       -0.22644566576793        0.53296573805559
C            2.30251309066608       -0.06346413327737        0.27681470861111
F            2.50054271072557       -0.56601110718853       -0.93889459240941
F            2.49918795428009        1.25052185525209        0.20967890039156
C            3.19473967113831       -0.72515383893440        1.32439809081851
F            2.89439316544538       -0.20849288595169        2.53657580477557
F            2.89372019162943       -2.04156731673892        1.37909910398844
S            5.06036293929675       -0.50185963646463        0.96965566896019
O            5.23633651841096       -1.14457749151828       -0.29473568233579
O            5.23700062188504        0.91595420332455        1.00638235227136
N            5.56994447942933       -1.29507981911513        2.22539283724973
S            7.13700749958107       -1.39247595903173        2.38052601637079
O            7.79938290104367       -2.23911684209524        1.43686088314045
O            7.79827933765277       -0.17607447035824        2.73986075247179
C            7.12172320375720       -2.40142747359953        3.97793418314686
F            6.50614784838912       -1.75855070513655        4.97313073368921
F            6.50633909317300       -3.57640794468639        3.82502205951213
F            8.36583481315360       -2.67126076871208        4.40537244129198
