19
 energy: -35.239820890386 gnorm: 0.000544375636 xtb: 6.7.1 (edcfbbe)
C            1.09630114348373        0.05101627701632        0.03847794615241
C            0.31120632768617       -0.87176328680752       -0.93277772713785
C           -0.92065014365031       -0.57608543923141       -1.34655230251109
C           -1.76226149825807       -1.32702600870455       -2.26130363978047
C           -1.37368928539543       -2.54341570760738       -2.82817614519664
C           -2.20356004237831       -3.23125270389629       -3.69070779432631
C           -3.45354843317380       -2.72258109783094       -4.01632516622405
C           -3.86221515722175       -1.51434523062296       -3.46681845581681
C           -3.02631220943094       -0.83495158901648       -2.60504028556690
O           -4.30530557814012       -3.38571151890485       -4.87296463048173
O            0.46799379051617        1.01109781501286        0.50658062857136
O            2.27527778002733       -0.28770223332999        0.22871982312269
H            0.85143246561873       -1.75203472228472       -1.26107610066987
H           -1.35066921022911        0.33772799662794       -0.94999821225560
H           -0.40602441948121       -2.95622184102877       -2.58705987373195
H           -1.88277521963061       -4.17530743238941       -4.11876734819747
H           -4.83613696480072       -1.12648968049135       -3.72663576088758
H           -3.35300541481711        0.10444804406298       -2.18147415703701
H           -3.87471793072478       -4.19994164057361       -5.15754079802510
