11
 energy: -19.441671742428 gnorm: 0.000321666622 xtb: 6.7.1 (edcfbbe)
C            1.04363757363372       -0.04997224125972        0.05442340234468
C            0.50589383679071        0.25898192318974       -1.31283771203517
C           -0.25616205118021       -0.53247077921345       -2.04636518960920
C           -0.77271340576130       -0.14133270203606       -3.45354397320233
O           -1.47917355714734       -1.00153926098982       -4.00727318502357
O           -0.43345157122446        0.97616339300957       -3.87482718390076
H            0.72055217714011       -1.03752458566116        0.38225254026743
H            0.69653223035941        0.68854806756483        0.78113072092950
H            2.13602750543920       -0.02375750738929        0.05405141137954
H            0.77740826040446        1.22511829395086       -1.72194836531534
H           -0.56368099845429       -1.51286460116550       -1.69456246583477
