11
 energy: -21.411555246989 gnorm: 0.000693335509 xtb: 6.7.1 (edcfbbe)
C            1.13117383724934        0.02192654309568       -0.19297936917164
C            0.28537514632223        1.03965748973258       -1.07258996797297
O           -0.56433501383290        0.27196096689907       -1.89064891985944
C           -0.49051576632536        1.98645328933392       -0.15878008732291
O            0.81023273431390       -1.16666269539570       -0.39465560100218
O            1.97870550161369        0.49465042479596        0.56590573984985
H            0.97857941176397        1.62209937185408       -1.70230687051787
H           -0.34380175625292       -0.64368817318308       -1.56186735323787
H            0.20777660488868        2.45278502515698        0.53307244886904
H           -1.00863492403615        2.75758267860477       -0.73193177246708
H           -1.22679577570447        1.41902507910575        0.40874175283308
