7
 energy: -14.130168834761 gnorm: 0.000656113748 xtb: 6.7.1 (edcfbbe)
N            1.04183539822610       -0.45642590667920        0.00219184120482
N            0.76774183823288        0.86491262698951        0.00246796690735
N           -0.51984958128522        0.98377916660591       -0.00021133195878
C           -1.20062663422273       -0.23655860846658       -0.00233636591939
C           -0.15450014281771       -1.15228509740529       -0.00083349431105
H            1.99956978281169       -0.79589246333755        0.00401488330245
H           -0.11399066094501       -2.24029971770680       -0.00148349922540
