7
 energy: -18.223866600016 gnorm: 0.000439887355 xtb: 6.7.1 (edcfbbe)
O            1.21081069413451        0.42275755353984       -0.30212722383888
C            2.37120164906438        0.18897453264076        0.03169472884123
O            3.05208969611910        0.61754577481090        0.96206029580446
C            3.15369326169663       -0.82430322803088       -0.95040038484223
Cl           2.94416039691219       -2.50308915564257       -0.43492297244042
H            2.75680335046560       -0.75856357434032       -1.96468070209923
H            4.22620095160760       -0.62451190297772       -0.93239374142492
