30
 energy: -45.614428274236 gnorm: 0.000763010831 xtb: 6.7.1 (edcfbbe)
S            1.46082748918880       -0.11456486742381       -0.76622527141230
O            1.78138988009074       -0.11789924295784        0.65127998798792
O            0.61526507045161        0.99974113013808       -1.17144767692707
O            0.56444873638048       -1.49254080588760       -1.03704121320622
C           -0.81088216215396       -1.29576670774495       -1.07152365594420
C           -1.49433426688103       -1.60041800129093        0.26579721936301
C           -1.08481914816731       -0.63769456664363        1.37897831789575
C           -1.50318620859384        0.81705769038230        1.15997645675868
C           -2.99694264516958        1.05211976927589        0.92628638591098
C           -3.91340727679047        0.54231640038224        2.04288129914734
C           -3.64764372692860        1.15083239237528        3.42062565892087
C           -3.87229347661827        2.65781197664559        3.46417258636032
O            2.61527214460959       -0.31656671905376       -1.61461996736687
H           -1.00039636334459       -0.25967081818845       -1.37019519365967
H           -1.21823166140127       -1.96832990517666       -1.84464659088028
H           -2.57816348173881       -1.58628323462667        0.11114158192452
H           -1.21261988985702       -2.61486004761351        0.56357947912219
H           -1.48595015630381       -1.00823053220787        2.32901744617650
H            0.00651191962632       -0.64205784737108        1.43420958635851
H           -1.17698023040260        1.39281123416978        2.02904625051882
H           -0.94287914648935        1.19905281246654        0.30450577190506
H           -3.16163563231852        2.12339852492829        0.78783300469685
H           -3.29515160584136        0.56487632958869       -0.00475857780050
H           -4.95242434077136        0.74962523637846        1.76363789268095
H           -3.80719525932323       -0.54159935915969        2.11977830962148
H           -4.31454117412865        0.67160289118886        4.14498619704653
H           -2.62341489768268        0.93008622191903        3.72149544747701
H           -4.87289924112256        2.90591873026113        3.11301812998445
H           -3.76336027383479        3.02965718178967        4.48180060874151
H           -3.14955297448595        3.17095413345428        2.83650052859979
