8
 energy: -18.244351564581 gnorm: 0.000281277241 xtb: 6.7.1 (edcfbbe)
O            0.91867104155634        0.01835234622466        0.05433930047210
C            0.64169326938152        0.91238376160538        1.10101478029646
C            1.20848981408504        0.28305589177437        2.43851030478046
O            1.06347383343177        0.92757198537827        3.47856827869866
O            1.74697559355828       -0.82683326863710        2.25013045462448
H            1.38179011041013       -0.70342402492201        0.56458871354364
H            1.12247703671189        1.88431415463676        0.92094201824360
H           -0.44155069913499        1.07064915393967        1.20167614934061
