21
 energy: -69.896368697859 gnorm: 0.000941882380 xtb: 6.7.1 (edcfbbe)
F            1.47522685055210        0.54740600206314       -0.40876714205601
C            2.57721580054666       -0.04744551920068        0.09022397530732
C            2.67764545513681        0.00059924048695        1.62905212606531
O            2.26091843014272       -1.12416448124463        2.27417581194251
S            0.55211627338359       -1.16690566358593        2.12908333165403
O            0.16409355232584        0.14266038259769        2.60944885349918
O            0.36703190749270       -1.35435689904774        0.70842138878478
O            0.16936264758773       -2.26968320364737        2.96414956802933
C            2.85270954254199       -1.41517606646828       -0.59650942116331
C            2.25342975571494       -1.52796478676581       -2.03185423880219
C            2.61100011969240       -0.33848816253387       -2.95865700732519
F            3.94027164190433       -0.18486951119533       -3.07970595015853
F            2.14753353847366       -0.59594989620741       -4.20052656788103
F            2.73504274707229       -2.66996688061527       -2.58867408310877
F            0.92127536257943       -1.65340662037500       -2.02798744072204
F            4.21270022427051       -1.49636964863279       -0.74333505647353
F            2.53792405156429       -2.50677898321125        0.09333489890539
F            3.57275741987452        0.78209386489158       -0.40619865361003
H            3.73690167097491        0.17835775170685        1.85945605792720
H            2.05684830728183        0.85558216579107        1.94242135007096
H            2.15882470088562        0.59903691519449       -2.60935180088296
