11
 energy: -22.521772000522 gnorm: 0.000515629249 xtb: 6.7.1 (edcfbbe)
C            1.08105722168437       -0.04165114536164       -0.06815329897621
C            0.55032088369085       -1.44830210194410       -0.11308912998031
S            0.44257129535203        0.66073443651416        1.50796322431587
O            0.95914289015648        2.02963597967712        1.54981968814838
O           -1.01300613740993        0.58541654628931        1.38370395155973
O            0.99267922204908       -0.20707255355375        2.54919287402892
H            0.70383256481014        0.58812734838865       -0.86789406606605
H            2.16428056113149        0.00980249054117       -0.01829151974108
H            0.90094082843240       -1.97070460833706        0.77441683162718
H           -0.53544788486809       -1.40225010801507       -0.06286636811550
H            0.85334855497117       -1.99978628419875       -1.00742218680095
