28
 energy: -64.837594092818 gnorm: 0.000259580958 xtb: 6.7.1 (edcfbbe)
C            0.89695463334443       -0.17823297330478        0.02086377606852
C           -0.09687662270830       -1.34411084311155       -0.01471115445967
C            0.76937105722001        0.58133413365682        1.34167899132329
C            0.64843147629916        0.76711929539604       -1.15688901805122
O            2.23375646509131       -0.67292143626056       -0.19866268457016
C            2.98527636930097       -1.04399242376225        0.88506107731410
C            3.88317217665096       -0.14908946047034        1.46473142962196
C            4.69436865163561       -0.51482011339443        2.53181652390574
C            4.66384095668804       -1.78512676081635        3.08999468494997
C            3.77958416166390       -2.67482047745790        2.49388918548289
C            2.96637535128092       -2.33000314831083        1.42040898426219
F            2.13727543837646       -3.25831903779695        0.88459347347618
F            3.66966654233434       -3.93374283468424        2.94761691155707
B            5.56392142142478       -2.27354116214765        4.42556181888270
F            4.67604351542598       -2.56648863596704        5.46040408961203
F            6.29705216959160       -3.40862683891261        4.09754581996504
F            6.43557134240150       -1.28640240559281        4.85092320844247
F            5.51491135011960        0.43483480663885        3.01076089020629
F            3.94951155211126        1.11075952532555        0.96733453931979
H            0.03230578272387       -1.98774417245421        0.85072334629649
H           -1.11637817443028       -0.96552515776062       -0.01871134273866
H            0.06681796297835       -1.93844536007015       -0.91006423907615
H            1.48178766559673        1.40147121652917        1.38178119327166
H           -0.23526851746973        0.98827550686301        1.42790565462570
H            0.94997791516163       -0.07949437690181        2.18769929100334
H            1.37076807527873        1.57872218652146       -1.13123066098554
H            0.77164562921294        0.22619071895544       -2.09115625539834
H           -0.35635434730708        1.17842022929224       -1.10895953430689
