19
 energy: -32.843327245934 gnorm: 0.000625823035 xtb: 6.7.1 (edcfbbe)
C            0.81000232995554        0.05035609710384       -0.40851289269791
C            0.86123563055627       -0.95413988203449        0.73837012273129
O            0.02329703581580        1.15292186870641       -0.09559112256676
P            0.80864617556534        2.27696380056123        0.90433913209084
O            2.19403025179871        2.44785512440031        0.41204144438523
O           -0.06963000433845        3.59884891597788        0.44395601026366
C           -1.30026459678018        3.78735571589173        1.07333891536889
C           -2.42858802310899        3.06084187013469        0.34979770158468
O            0.49939143164771        1.95403653673144        2.32495282926065
H            0.37556520069942       -0.41187243495131       -1.30968464542838
H            1.83135285635293        0.38468621400271       -0.63657700550337
H            1.21786111690219       -0.42835120101240        1.61954774148644
H           -0.13511022606119       -1.34143436631050        0.94532289157088
H            1.53023737966045       -1.78031513073534        0.50019062608828
H           -1.23456969971100        3.41770178841529        2.10480105246255
H           -1.48989212113959        4.87161804286635        1.08953101942134
H           -2.18921070188601        2.00208048131016        0.32453492429960
H           -3.37555094885580        3.21634141731585        0.86622934786519
H           -2.51075308707330        3.42162514162559       -0.67395809268324
