7
 energy: -21.308877875577 gnorm: 0.000784454724 xtb: 6.7.1 (edcfbbe)
C            1.08634650470432        0.00032861703830        0.12502370518096
C            0.41123392137270        0.81389824905669       -1.04943877467206
O           -0.80618837054184        0.88265248730327       -1.15065111020144
O            1.31688973729641        1.31433870317501       -1.77729573134550
O            0.54143033284139       -0.61429690924078        1.01377376212932
O            2.40349416199696        0.10504811811386       -0.02625125615382
H            2.39824371233007        0.70395073455366       -0.89105059493746
