13
 energy: -26.163009496335 gnorm: 0.000102456353 xtb: 6.7.1 (edcfbbe)
C            1.14049832885546        0.00535160698308       -0.06013554643934
C            0.34055560120742       -1.33384953334161       -0.20577740749096
C           -0.82209839452020       -1.41113069041573       -0.96225212271961
N           -1.53839924918539       -2.51656832511854       -1.12025704429893
C           -1.10808104772131       -3.61284408095539       -0.51234449542004
C            0.03560338164308       -3.66010038698543        0.26789258468336
C            0.77058971865294       -2.49566823444404        0.42089045415252
O            0.65947122836649        0.97524732840163       -0.65912148816745
O            2.15946375527138       -0.07119877628162        0.63927165693364
H           -1.18831061446362       -0.52481052620572       -1.46582615282893
H           -1.71889097396804       -4.49880305629117       -0.66344057679114
H            0.33862860721289       -4.58641770973845        0.74103976594128
H            1.67396965864890       -2.45904761560701        1.01530037244561
