21
 energy: -40.347922311692 gnorm: 0.000755514421 xtb: 6.7.1 (edcfbbe)
Cl           2.31493395146741        0.20147483834415        0.22850409700478
C            0.61104353662692       -0.12721734778034        0.11483407224787
C           -0.26700829806769        0.91594282294520       -0.11717530415510
C           -1.62924985396643        0.69677352788362       -0.23189545313420
C           -2.12052652474978       -0.61527160977032       -0.06695301296048
O           -3.38943878173484       -1.02806343174816       -0.30232824476989
C           -4.49168247502499       -0.33397189795702        0.26015498117316
C           -4.17968668109485        0.25689006570813        1.71282257204289
O           -5.08240928840554        0.96441399735055        2.16623157671750
O           -3.08300182118425       -0.06040813492420        2.17743872352342
C           -1.20186013300181       -1.65168217869853        0.14064911280583
C            0.15410377426174       -1.42429901504393        0.23695697383392
C           -2.52085708656714        1.86657393708106       -0.52687811399530
H            0.11958318774391        1.92028811015918       -0.22134962580419
H           -4.85066666243033        0.47237869347481       -0.38956932599306
H           -5.28770766664448       -1.07958201377090        0.35256114664072
H           -1.59354831256012       -2.65195059104630        0.24272511394053
H            0.84254048778411       -2.23760740687958        0.41300562436213
H           -3.17429519611239        2.06277560279728        0.32170727248802
H           -1.92456976023480        2.75749915866680       -0.71840339823410
H           -3.14059639610657        1.66865287320736       -1.40110878773480
