14
 energy: -25.688271352305 gnorm: 0.000526370206 xtb: 6.7.1 (edcfbbe)
C            1.15147203287783        0.11098582651240       -0.08710438043201
C            0.54563675306393        1.43263086313290        0.31617060474144
C            1.08671976527353        2.55867647844082       -0.55502369311233
S            0.39121012074324       -0.39785081508332       -1.68684729351439
O            0.78227077611404       -1.79985234492076       -1.83646655341133
O           -1.04662359832441       -0.20800069770987       -1.49749675935945
O            0.96603321243228        0.47382897628115       -2.71433695266742
H            0.90579011177450       -0.69308962309325        0.60013337265880
H            2.22384030895296        0.15701293469107       -0.24961055580694
H           -0.53049546882443        1.33911489057894        0.15345168867239
H            0.72229598229436        1.65212821371538        1.37898854256230
H            1.00006488810698        2.24702818347229       -1.59394660545328
H            0.52869370996241        3.48196472405699       -0.40047335575367
H            2.13719140555283        2.74725238992522       -0.33287805912415
