5
 energy: -15.104949379625 gnorm: 0.000311951576 xtb: 6.7.1 (edcfbbe)
C            1.00796626707323       -0.14249953369714        0.00182853569066
O            0.23826398666189       -1.00778552723223        0.41391740343917
O            0.32888225437605        1.02113608377702       -0.55218065132244
O            2.22447707521173       -0.07601419847925       -0.02974710784167
H           -0.61156958332291        0.82731317563161       -0.45989817996572
