23
 energy: -37.628453317640 gnorm: 0.000853818447 xtb: 6.7.1 (edcfbbe)
O            1.56231151898885       -0.43104662129403       -0.74897174724195
S            2.92122879834174       -0.23299508400064       -0.27178417920803
O            3.91844293699263       -1.01937108682092       -0.99861947575895
O            3.30957706897679        1.15609577199287       -0.09414006281439
N            2.90287754584848       -0.85045048276628        1.33770536705917
C            2.46082611026397       -2.21866265377384        1.32528610527568
C            3.55167496496616       -3.21774969038063        0.93090403699149
C            2.99220787507386       -4.63430041383097        0.86867281088925
C            2.38483104464931       -5.02946337802799        2.21294060581979
C            1.30030421174960       -4.03529527133043        2.61866017276431
C            1.86336879262432       -2.61884573991092        2.68098328788725
H            3.85126347620078       -0.74362718727245        1.66643672160793
H            1.67276870542979       -2.22697520194468        0.56428337884082
H            3.95085013084457       -2.90252466158070       -0.03459978313299
H            4.35923931186311       -3.17366742419317        1.67088200531114
H            3.78253975550556       -5.34091193386796        0.59694492261477
H            2.22107118828014       -4.67986182994337        0.09687493608253
H            3.16919329106438       -5.03751819179250        2.97534256159555
H            1.96491911415261       -6.03912076178977        2.15600045517884
H            0.88062731110480       -4.31785263563965        3.58992213069717
H            0.49400456590301       -4.06448963363961        1.88248585367986
H            2.64375176827332       -2.56300648887345        3.44559985773490
H            1.08107051290247       -1.90723939931837        2.94775003812562
