14
 energy: -23.599700618420 gnorm: 0.000248214631 xtb: 6.7.1 (edcfbbe)
N            1.59546588030720       -1.12548287344037        0.00062317743857
C            2.26371929181904        0.02735469319975        0.00073089386258
N            1.56751488475872        1.16353091713852        0.00047365386674
C            0.27811031935184        0.72202107826170        0.00030203910235
C            0.29566490819479       -0.71558980357158        0.00038701433487
C           -0.89529863395495       -1.43028833025085        0.00022643496432
C           -2.08187939866908       -0.72430501891244       -0.00001133757144
C           -2.09893769769964        0.67267920360085       -0.00009221905814
C           -0.92994940943848        1.40742576801831        0.00006099630186
H            3.34727280644552        0.04058578704274        0.00086984381955
H           -0.89202785485201       -2.51485340581012        0.00028958036152
H           -3.02664735387073       -1.26087252864344       -0.00014477115909
H           -3.05652594103695        1.18601721009420       -0.00029572816651
H           -0.95316180135527        2.49174730327273       -0.00001957809718
