5
 energy: -20.813216519890 gnorm: 0.000922363456 xtb: 6.7.1 (edcfbbe)
O            1.27071218525774       -0.04825943140823        0.06597796407314
Cl           2.70231553978278       -0.04826319810102        0.06598004461769
O            3.17952216835236       -0.41163240679480       -1.23391660972303
O            3.17952467646477        1.25916214574125        0.40124463028744
O            3.17951543014236       -0.99232710943720        1.03061397074475
