10
 energy: -25.209713380885 gnorm: 0.000774716569 xtb: 6.7.1 (edcfbbe)
N            1.07098150770764       -0.09982928601547        0.00159376801800
O            0.49769234995504        0.53054145265890        0.89237044611626
O            0.55233980770038       -0.42212366797826       -1.06235789083130
C            2.57213364386634       -0.22939156238220        0.14233376867414
N            2.98615210449706        0.99782443399146       -0.50177120945394
N            3.56745138962812        0.65090760503896       -1.60917997226407
C            3.62311165655860       -0.70011246043177       -1.63901055670617
N            3.09239439552069       -1.31118583764217       -0.61194028164316
H            2.76068733408579       -0.26510280996542        1.22129672661629
H            4.09291581048026       -1.22419786727402       -2.45407479852600
