7
 energy: -31.053715036450 gnorm: 0.000009458865 xtb: 6.7.1 (edcfbbe)
F            1.07355117337751        0.00863001500024        0.09442000404700
Sb           2.99177968329175        0.00862997943579        0.09441998480415
F            2.99178021912789       -1.32640830637425        1.47183549480648
F            2.99178019930914       -1.36878552348147       -1.24061830770409
F            4.91000822422432        0.00863007357818        0.09442003118303
F            2.99178024041123        1.34366829235512       -1.28299549816216
F            2.99178026025815        1.38604546948639        1.42945829102559
