5
 energy: -17.974045658081 gnorm: 0.000597755242 xtb: 6.7.1 (edcfbbe)
Br           1.05869304974945        0.04234088934454        0.08386529888456
Al           3.37448472150417        0.03937312024624        0.08387691227024
Br           4.14690298443410       -1.90302256959308       -0.91062879536757
Br           4.14595003769403        1.87388404798413       -1.10204610804978
Br           4.14636920661824        0.15382451201818        2.26427269226254
