7
 energy: -20.190735895886 gnorm: 0.000425437843 xtb: 6.7.1 (edcfbbe)
P            0.96393105189526       -0.36570288006826       -0.46304146202373
O            0.74347060115550       -0.32954556156576       -1.93108648058718
O            0.88862688927033       -1.95416889260191        0.05060855609850
O           -0.43726538943801        0.19805938848362        0.25207485406564
O            2.12842940773766        0.25334069673553        0.21944157402111
H            1.35165590345682       -1.87912008116955        0.88005345492579
H           -1.05923846407758        0.02678733018632       -0.44911049650012
