29
 energy: -113.247700932283 gnorm: 0.000902746898 xtb: 6.7.1 (edcfbbe)
F            0.86520034243405        1.07703794701221        0.00306446875782
C            1.86283604556418        0.25829747916872        0.41500012892163
C            2.55240705863592       -0.38057992964002       -0.78424275746204
C            2.57737657060068        0.47058561872326       -2.08938118251240
C            3.05099033830974        1.95307098257125       -2.22003604306001
C            4.59725242272678        2.19063558787430       -2.26771196883218
C            5.15332093527268        2.49471871752700       -3.71647428143141
C            4.78831491234974        3.82326547240520       -4.46181194846566
C            4.60254545945711        5.10852690990441       -3.60518783981785
F            5.68356731961138        5.37755777805411       -2.88520843345042
F            4.41140450510750        6.14422795263457       -4.42762555508597
F            3.54782767916688        5.03506448343743       -2.81197953971628
F            5.80523043607278        4.08044077582649       -5.31870574994585
F            3.70020032584031        3.67173341652618       -5.23056460457078
F            6.49821888091851        2.51418500905172       -3.58359597783951
F            4.87383565216582        1.47703273468290       -4.54772564556129
F            4.95693615698298        3.24007120450589       -1.51877347199139
F            5.29693583658836        1.12130986351226       -1.88131290317101
F            2.59749778891919        2.29879800237982       -3.47879579347484
F            2.41463310046925        2.80694347179801       -1.43332212131359
F            3.29990122622282       -0.22549221877587       -3.00229642500604
F            1.31062529671082        0.46276734916803       -2.56397786077472
F            3.78030013741506       -0.81070008252496       -0.47533502046301
F            1.89331249302202       -1.52027332299852       -1.17220424844930
S            3.21776050486551        1.25239408886235        1.29775085135138
O            2.51996245689264        2.29171873669136        1.99720145942097
O            3.88896175136894        0.27560459575460        2.10588482397343
O            3.90729181540745        1.65825340704960        0.08293331999220
F            1.27602255090059       -0.69590603117785        1.17263431997776
