29
 energy: -68.009612699959 gnorm: 0.000740423875 xtb: 6.7.1 (edcfbbe)
C            1.67490047298245        0.84392854509754        0.08057791208760
C            0.90145048860415        0.10581832690758       -1.01542344742961
C            1.74990492180664       -0.00255539857583       -2.28521308960854
C            0.56448706212067       -1.30211501284405       -0.52086258415995
C           -0.42780291915928        0.85454589014456       -1.33643977461839
O           -1.49082048331811        0.26214324132186       -1.17198070395954
C           -0.26564792327505        2.18430679343616       -1.79753091080147
C           -1.23098910452986        3.08886943257862       -2.20166587231955
O           -1.04306491976563        4.25793271658995       -2.56937693249224
C           -2.72851532810222        2.61513934385912       -2.22160242154856
F           -2.94062611540511        1.52064425262845       -3.00163788387236
F           -3.21345178100851        2.32072313184554       -0.98551394815034
C           -3.66490517406298        3.72181774139603       -2.78944098953792
F           -3.66163067071924        4.82474372817031       -2.01124123149538
F           -3.30157195741735        4.10184579606427       -4.03287352004939
C           -5.14730107818021        3.27505823616938       -2.90230986555503
F           -5.32812350037904        2.30056900428699       -3.79184572893862
F           -5.67121165395555        2.87230323264201       -1.74727703636762
F           -5.90534624227297        4.30583530510493       -3.31891197514249
H            2.57352991476375        0.28600752868091        0.34941934703442
H            1.05460713006976        0.95007030489625        0.96848815634417
H            1.97297826132408        1.83659699922636       -0.24526107401322
H            2.66442063865935       -0.56228699469077       -2.08376854603744
H            1.19177840152852       -0.51951427577634       -3.06289313229028
H            2.02303462429842        0.97953815430127       -2.66102101557170
H           -0.04460167390821       -1.24560878781993        0.37808647294976
H           -0.00901994846009       -1.83405677738137       -1.27589745055808
H            1.47402827961264       -1.86211526443154       -0.30167348118543
H            0.73321027814724        2.59150480618402       -1.84827927271278
