55
 energy: -64.787374905658 gnorm: 0.000611350767 xtb: 6.7.1 (edcfbbe)
C            1.29026824239778       -0.35084532241796       -0.45120925643459
C            0.69689867028572       -1.50496686593070        0.46839029465095
C           -0.19309078232103       -0.93267456376886        1.56821215161302
C           -1.23591096910531        0.05866503860959        1.04655161534730
C           -2.10435851006816       -0.47274165563395       -0.09343409960753
C           -2.89865310069302       -1.73784792170621        0.23195408674737
C           -3.87055164312686       -1.60543345401038        1.40758331358939
C           -4.93183173370741       -0.51526148291128        1.24744269656429
C           -5.84098143507105       -0.67447205248356        0.02766779719063
C           -6.64155086624962       -1.97750816633400       -0.01669721218500
C           -7.56587712654749       -2.20992617679768        1.18026996568936
C           -8.62559803363361       -1.12814381030399        1.39841209614743
C           -9.58487992545945       -0.91645341581286        0.22550335862347
C          -10.38739179084850       -2.15259920783239       -0.18491193015517
C          -11.26922914526917       -2.74674432120875        0.91518502342417
C          -12.31659941607983       -1.79251131206082        1.49313367893395
C          -13.31641809965222       -1.23799898192074        0.47727766894842
C          -14.17310957063059       -2.31754436461224       -0.17396118019840
O            0.80232896246664       -0.27927709703801       -1.58990243902236
O            2.17075524650399        0.34838680435389        0.06592920234449
H            0.13878573531136       -2.20020411326942       -0.16364383702935
H            1.53161676406982       -2.04503044753882        0.92645162896783
H           -0.68915441726133       -1.74543340982684        2.11818411620663
H            0.44437266222307       -0.39894101788599        2.27949278842697
H           -1.86270953606462        0.39602989117066        1.88119412227526
H           -0.69851946945391        0.92803498852713        0.66314000729302
H           -2.79180150742660        0.31876193784312       -0.40660855943974
H           -1.44026530070241       -0.67473765506725       -0.93599269984622
H           -3.45000991593334       -2.04379313560649       -0.66160997873745
H           -2.19926210567689       -2.54276029815603        0.46497269395021
H           -4.36263546062607       -2.56992095358759        1.56593024132245
H           -3.29860082603936       -1.38729835325182        2.31194378569796
H           -5.54259259826505       -0.48804052468268        2.15455603440835
H           -4.43096798737244        0.45139471338306        1.17078194876271
H           -6.52962448781440        0.17413584408657       -0.00340428085707
H           -5.22937082803081       -0.62181073684925       -0.87460359937682
H           -7.23223614200005       -1.98780938619630       -0.93623757701640
H           -5.94664220474495       -2.81740110033554       -0.07617974171370
H           -8.05867456934252       -3.17713696491482        1.05261940024584
H           -6.96114852724432       -2.27905674032943        2.08675905785161
H           -9.20002266047268       -1.38476451159772        2.29215284837760
H           -8.12640889160262       -0.17894135631636        1.60312197586738
H          -10.27439817116626       -0.11018428565513        0.48745992690434
H           -9.01549594395286       -0.57820149332642       -0.64249880741725
H          -11.01054366142814       -1.88770620749350       -1.04240071627348
H           -9.69771487025612       -2.92889332532737       -0.52237953040646
H          -11.77203840187395       -3.62917718147862        0.51263511768229
H          -10.63448632400667       -3.08925817652390        1.73493746236977
H          -12.87066197591872       -2.32647839104150        2.27072372299728
H          -11.80996028479895       -0.95430001544099        1.97530096539707
H          -13.97203520682643       -0.53245220886683        0.99521457885122
H          -12.78602327458822       -0.68004167212818       -0.29580244397324
H          -14.67266484048918       -2.91673112613109        0.58504675559499
H          -14.93279892084433       -1.86598253468306       -0.80894424140307
H          -13.56735482256690       -2.97733172167811       -0.78947999816723
