14
 energy: -33.313519196905 gnorm: 0.001000289184 xtb: 6.7.1 (edcfbbe)
C            0.87866042969281       -0.07279714140257       -0.08273867350804
C            0.42551635418152       -1.49917728848901       -0.25250098630430
C            1.22972860011652       -2.55769150692283       -0.15279953120880
C            0.74691075747978       -3.96498747539489       -0.20913511680868
O            1.46481961414378       -4.86126189714270        0.23457877211014
N           -0.48610403912049       -4.16939511559535       -0.67772787140268
S           -1.20339189511110       -2.99222942951172       -1.43280245838668
O           -0.63837082166255       -2.69022461954597       -2.72550108167702
O           -2.63018925698634       -3.12894984058846       -1.40049602246608
O           -0.90122898788071       -1.60585773480763       -0.51653092016742
H            0.26874865528155        0.41741803804331        0.67476014472135
H            0.74200225682894        0.46119577381714       -1.02209006823131
H            1.92462797792927       -0.03712241823676        0.20869157861707
H            2.27506035510702       -2.42533934422253        0.08397223471246
