18
 energy: -41.234531917466 gnorm: 0.000672608538 xtb: 6.7.1 (edcfbbe)
Cl           3.09086641905097       -1.09056128847936       -0.62617814991967
C            1.45219599264208       -0.62991296260075       -0.29244236839536
C            1.16150817689448        0.72844555412663       -0.11757153291305
C           -0.16048208481513        1.09830466324758        0.14880953482070
C           -0.69092041352108        2.59420981999946        0.34340857994980
O           -0.68984620116998        2.98290687150591        1.50922249794051
O           -1.02889573983743        3.13555508990469       -0.70759535125740
C           -1.10966373978626        0.08979591949003        0.22951008562237
C           -0.81893653227914       -1.25370594581539        0.05866623489952
C            0.48823728226355       -1.61425791780346       -0.20908637629002
Cl          -2.74861051708952        0.52592017438047        0.56191568813354
O            2.23493612559390        1.55452628333915       -0.22817243615239
C            2.06831379409593        2.94514434973149       -0.05704224095794
H           -1.59822118933061       -1.99539693045765        0.13359571927551
H            0.76363763622817       -2.64787187748823       -0.35176416078184
H            1.67295388306513        3.18044990681890        0.93324556878009
H            3.06683935868105        3.36926047326048       -0.17078121681564
H            1.39716774931400        3.36192781684030       -0.81096007593846
