42
 energy: -81.801378464810 gnorm: 0.000855408698 xtb: 6.7.1 (edcfbbe)
C            0.35106673651439       -1.04692811202013        0.44408767441159
C           -1.11292946373698       -0.61121376477445        0.71080688243238
C           -1.00256717125714        0.92032899947041        0.87176160092353
C            0.47317310828784        1.19174840742112        0.57278311541595
C            0.67748706021787        0.92052920265843       -0.92462152923363
C            0.62197726754890       -0.61704348403856       -1.00969015419155
C            1.17663182966043       -0.00503769589967        1.24245477522062
C            2.68458044574219       -0.04434138207319        0.98580345520526
C            0.99045688866525       -0.06772484739584        2.75877401206265
O           -1.60891807538681       -1.26770781564297        1.86411311751872
C           -2.86476520268420       -1.00218647360712        2.31543856506887
C           -3.13665029729820       -1.40759429021094        3.62582521014484
C           -4.37669091320412       -1.22216103738264        4.21900032608122
C           -5.43348416599026       -0.60875628682102        3.55905634169030
C           -5.15601911379691       -0.21174723164142        2.26056095140527
C           -3.92269948096212       -0.40109011622805        1.64061611014415
F           -3.78644290886777        0.02283073175564        0.35285296303081
F           -6.09648015137704        0.39022252380060        1.51488710606386
B           -6.94723270628256       -0.30426020867643        4.22324591103592
F           -7.15081775098948        1.07595481784408        4.24250478585608
F           -7.92314132672909       -0.91178594105925        3.43631032479040
F           -7.05175545012855       -0.78768373226792        5.51599252960415
F           -4.50521437453817       -1.65995652134040        5.48166072984042
F           -2.13093844008686       -1.99725094571438        4.32103745797101
C            0.60943767128393       -2.51337625074509        0.72379466003165
H           -1.73757108923519       -0.88568979912153       -0.14647267687432
H           -1.66540085107305        1.45156190564572        0.19024641861764
H           -1.26346470051245        1.21055456773785        1.88946914418265
H            0.80809352475355        2.17897693597022        0.89032616367992
H           -0.10899775516789        1.38868044401647       -1.51606938255676
H            1.63137958130817        1.31448064735554       -1.27645744848396
H           -0.16503973680351       -0.96371955567569       -1.67920613942751
H            1.56186126671631       -1.04060212214224       -1.36402869879096
H            3.15896472702298        0.77347677528780        1.52607078382578
H            3.10060135811054       -0.97831805542341        1.35795467062924
H            2.94680540901633        0.04971082026995       -0.06182920748738
H           -0.02318609143001       -0.31695614968403        3.04448054819406
H            1.64333268088770       -0.82941172169730        3.18016030385673
H            1.25582479548050        0.89044600739899        3.20380742969059
H            1.65235247197278       -2.76009837721852        0.53554998252537
H            0.36760508682050       -2.74196038076693        1.75743186240258
H           -0.01469469266353       -3.13087048739057        0.08077932339200
