7
 energy: -26.880026897349 gnorm: 0.000378539001 xtb: 6.7.1 (edcfbbe)
F            0.91164306917282        0.07049572566032        0.04749807209490
C            2.26848833427809        0.05392797701005       -0.04226707665697
C            2.81098467864174       -0.29579477311776       -1.56411640444395
O            3.50063909670354        0.58738516369874       -2.04276788713109
O            2.42523099327727       -1.38621550913807       -1.94948636351577
F            2.66757962080845        1.25727308723038        0.43935774093818
F            2.67532420711809       -0.85081167134365        0.88794191871468
