65
 energy: -93.744821377047 gnorm: 0.000755338795 xtb: 6.7.1 (edcfbbe)
C            1.16065177332496        0.65885215100075       -1.18888750682646
C            1.96174181703451        0.65747981154042       -2.48906002291877
C            0.26400536238350       -0.57960067251522       -1.01615989365058
C            0.23772817983955       -1.07906549565280        0.44890077879628
O           -0.86065352659209       -0.57155022301553        1.19773379798417
C           -0.83047210179432        0.45871048540617        2.05151466395662
C            0.42417541366544        1.23964298404746        2.24698554155643
C            0.25309565833095        2.38650541115992        3.22115134681765
C            0.28496973111573        1.93005681371680        4.67106834463808
O            0.53542994768778        2.67525314519556        5.58999927167267
O           -0.17590446470163        0.69763905092510        4.80192582417808
C           -0.28790583329919        0.12959817997015        6.10168692469639
C            0.85987140167676       -0.84383159017965        6.39413193826437
C            2.15090740248842       -0.14031477671113        6.85028213111690
C            2.07413737996818        0.92470830138113        7.94802356233080
C            1.60081154630278        0.47037081665608        9.33002612180960
C            2.57554659109786       -0.48417859788295       10.01135472071053
C            0.38293711720421       -1.96671143099709        7.32832946987359
C           -0.35232673182286       -3.06448617593461        6.56613434318527
S            1.88570581124265        0.22781569838172        2.87215137333578
O            2.75272390627873        0.19076096291013        1.69352431809379
O            2.43559850070934        1.02376311144773        3.95618077687533
O            1.41172065909261       -1.08844686564826        3.25588788265022
O           -1.87931885395940        0.74333197515217        2.58824254498050
C           -1.18155019332216       -0.36819467746120       -1.48842545313143
C           -1.38167835953044       -0.15160399034317       -2.98894772674389
C           -0.95186852237196       -1.32147177665332       -3.87575069694051
C           -1.75337696531164       -2.59176418403906       -3.61682786490514
H            0.55433887041429        1.56701905849592       -1.13847309830926
H            1.88303773312501        0.67886246646313       -0.36996199466809
H            2.60391878715716       -0.21939886868130       -2.52946538035273
H            1.32140800489841        0.65624793366404       -3.36812464713654
H            2.59655645682678        1.54056099573681       -2.53206508119108
H            0.71485268695256       -1.39415293968464       -1.59132742023462
H            0.06465720979059       -2.16003006355107        0.45364062431857
H            1.18900334762948       -0.88556091158779        0.94232055057740
H            0.80309030540516        1.59017114400868        1.29035628689692
H            1.05170977063654        3.11753231282017        3.09823364917613
H           -0.71546349701203        2.87757277865371        3.06916761869378
H           -0.34299203399839        0.93456485695790        6.84126763648900
H           -1.23957083097907       -0.41035288545789        6.08249084640809
H            1.10453227817560       -1.29647866389757        5.42546799929337
H            2.87036650775357       -0.91230155086288        7.13546353102169
H            2.54776601562769        0.36156516653290        5.96463190234425
H            3.07954926904614        1.34206306320594        8.05613129647173
H            1.43985735354235        1.74014048270660        7.60029653844481
H            1.48605209483165        1.35749958613932        9.96133617320664
H            0.62177275944564       -0.00236675930778        9.25381499989305
H            3.55467888665775       -0.01845876116048       10.10924673074358
H            2.22102489979132       -0.75221348237855       11.00612638859682
H            2.68905911340733       -1.39671864994411        9.43325010756362
H            1.24742181566031       -2.41049076671028        7.82604290892997
H           -0.27633756931250       -1.56667656212332        8.10328621718856
H            0.30320707286068       -3.49821499908176        5.81543749149813
H           -0.68220869820010       -3.85243441474441        7.24352800643800
H           -1.22284349196759       -2.66335675454120        6.05377529751763
H           -1.77118298911758       -1.22886109646520       -1.16962330492818
H           -1.58967229816601        0.49927997711839       -0.96503139752156
H           -2.44592035576188        0.03666710182664       -3.16067896023138
H           -0.84383026513703        0.74550048747457       -3.30057326295164
H           -1.08414536197559       -1.02632867282449       -4.92140299692262
H            0.10870317164670       -1.52803994037533       -3.72705852981207
H           -2.81967113650770       -2.39641524678981       -3.71536795835429
H           -1.47865797182871       -3.36645898985601       -4.33074956627686
H           -1.56416055793354       -2.96984487444762       -2.61629571531622
