4
 energy: -10.998302540319 gnorm: 0.000228865923 xtb: 6.7.1 (edcfbbe)
C            0.82546613191338        0.07022260691749       -0.06707020703729
O            0.32390492635820        0.12822280812722        1.05434505486193
O            0.31898683784237        0.01233790965019       -1.18627898646572
H            2.01579210388606        0.07008667530510       -0.06967586135891
