10
 energy: -24.474264788257 gnorm: 0.000548739645 xtb: 6.7.1 (edcfbbe)
N            1.03760276292256        0.06243223891832       -0.05770972975235
O            0.42726045831123        1.14202012442021       -0.05979786773070
O            0.43680034826397       -1.02249536905167       -0.05738024539201
C            2.40178811308038        0.06844439871774       -0.05694803457288
C            3.28750111118217        1.17613904375746       -0.05769952128491
N            4.52972109251173        0.75800102909459       -0.05651421176382
N            4.53571178553725       -0.60234150969299       -0.05487103842230
C            3.29722332056376       -1.03140580999284       -0.05513851410024
H            3.03562087338426        2.22072146359299       -0.05904943068876
H            3.05455013424269       -2.07816560976381       -0.05406140629204
