6
 energy: -19.175671071607 gnorm: 0.000737037587 xtb: 6.7.1 (edcfbbe)
O            1.13250081948397       -0.08333177842225        0.14873065032453
N            2.35408303662317        0.04505109829580        0.03321337070660
O            2.85558132709032        0.88392384516206       -0.72477016773957
N            3.08632379737778       -0.74942733773682        0.75140839358811
C            4.37455248521630       -0.77282838743237        0.77189261667291
N            5.50939853420845       -0.94708743986643        0.92974513644742
