12
 energy: -26.629856691170 gnorm: 0.000873130921 xtb: 6.7.1 (edcfbbe)
C            1.04835593775874        0.03727153987275        0.24689741404022
C            0.47935956668876       -1.34132637620777        0.57161698312965
O            0.44749799944579        1.04116016610724        1.00171064397228
S            1.24506756707031        1.17375236993429        2.46350856408039
O            0.99336962859677       -0.07217262202944        3.17094480984651
O            2.64306566339987        1.35708900490075        2.10712705732186
O            0.62066943481670        2.33124055744765        3.06558726138165
H            0.89263664118995        0.28292066043939       -0.81518314396483
H            2.12357312775218        0.05380318711743        0.46588473732182
H            0.56618876843257       -1.47546872722396        1.64724385859711
H           -0.57077188060797       -1.39415112417135        0.28963577420994
H            1.03420754545633       -2.11782863618693        0.04701604006338
