13
 energy: -27.666827836814 gnorm: 0.000437264498 xtb: 6.7.1 (edcfbbe)
C            1.04534402470401        0.04733186636301       -0.03302666645712
C            0.54449427060215        0.13113829236038       -1.43508854464197
N            0.37440329816158        1.27028483603266       -2.07109651476109
C           -0.07687930599681        0.88413828185862       -3.30584559205747
C           -0.15095243993445       -0.52214645910556       -3.32760116330887
N            0.24041629462004       -0.98997702457086       -2.14941909637263
N           -0.39180876144246        1.75150987834911       -4.31456372177292
O           -0.79279733693607        1.27191809420299       -5.39106510744051
O           -0.27687387035709        2.97070273290436       -4.15619693076150
H            0.67863682209514       -0.86551549357533        0.43183014574022
H            0.71089627624296        0.91535155100996        0.53098627736222
H            2.13671830635132        0.02848445513133       -0.02114263888301
H           -0.46573757811031       -1.15874101096067       -4.13295044664536
