3
 energy: -11.773781775739 gnorm: 0.000253207632 xtb: 6.7.1 (edcfbbe)
I            0.77932395544590       -0.07958002152724        0.04110001111782
I            3.73552995356191       -0.07957995694551        0.04109997776435
I            6.69173609099218       -0.07958002152724        0.04110001111782
