3
 energy: -8.516792395245 gnorm: 0.000475854414 xtb: 6.7.1 (edcfbbe)
S            1.06707995887568       -0.03625999263300        0.01224999751109
C            2.68639481378951       -0.03626001854575        0.01225000626561
N            3.85033522733482       -0.03625998882125        0.01224999622330
