18
 energy: -44.968116112478 gnorm: 0.000599143947 xtb: 6.7.1 (edcfbbe)
F            0.94858331491351        1.31662278514205        2.82188042141135
C            1.71772389045834        1.43249697769502        1.71088224854217
F            0.86068720418679        1.81426940782577        0.74632998746571
F            2.52958097846415        2.47276131965468        1.97060191292677
C            2.45545299795960        0.09707357854556        1.41854040017752
O            2.23751658586792       -0.82336687249600        2.21762350841172
C            3.28434717324758        0.03847056742655        0.30300544604204
C            3.56873111075679        1.06200358119449       -0.62619510207724
O            3.14863430129395        2.22602143794990       -0.64380260532972
C            4.50050555609620        0.69343718794135       -1.72179232507037
C            5.13266268739933       -0.45227290876540       -2.11087146833788
C            5.93333598946782       -0.27724966521957       -3.25907727906548
C            5.89770257963191        0.99908567384510       -3.72574193912731
S            4.88167771315115        2.01344814387856       -2.77707846698896
H            3.76268197188717       -0.91845213626445        0.15616442711755
H            5.03230060286675       -1.39404076125055       -1.60145229165217
H            6.50759275676051       -1.06828980580583       -3.71358538526434
H            6.40981258559029        1.40571148870351       -4.57639148918125
