18
 energy: -45.794386114113 gnorm: 0.000405008432 xtb: 6.7.1 (edcfbbe)
F            1.05775232284922        2.39409943273160        1.83900872774138
C            1.61855755581785        1.71500759082459        0.80596618728295
F            0.82103966168010        0.64425924486377        0.63825801269083
F            1.44602386907041        2.52116747423567       -0.25754568273325
C            3.10105993845198        1.37226263986950        1.12023396102755
O            3.52102008224825        1.76948539256891        2.21585538645866
C            3.82396499911366        0.66309552749502        0.16731569531507
C            3.38957670241367        0.20065892922205       -1.09407502018330
O            2.27763715792233        0.32597484639941       -1.61928507124494
C            4.43413295105889       -0.52733436161559       -1.87448357750679
C            4.33213114599035       -1.06198244537436       -3.13389297999800
C            5.58626015985842       -1.63995069517519       -3.42872908263947
C            6.36227718226998       -1.41721457781246       -2.33214944943232
O            5.67795884086973       -0.74877511187126       -1.39204625397883
H            4.84708088562374        0.45257675329172        0.44368857151070
H            3.45973708930617       -1.03384738531773       -3.75318451327388
H            5.87368530108075       -2.14862392442988       -4.32838239488708
H            7.37990415437519       -1.67628932990551       -2.10816251614977
