69
 energy: -189.870988457625 gnorm: 0.000474352682 xtb: 6.7.1 (edcfbbe)
F            2.88151816214658        0.01981373127943       -0.72888075695639
C            3.92950175040222       -0.33445982435509        0.04365903125704
C            3.60719950654931       -0.26116653499827        1.50796903619392
C            3.42052284978938       -1.41398897267375        2.25440542789840
C            3.11106731552349       -1.36445002291075        3.61532496844096
C            2.99140523003463       -0.10076964525774        4.18471269987997
C            3.16904186119382        1.05603759682727        3.43594518978638
C            3.48357626469815        0.99411148540411        2.08819862742849
C            3.05863985178909        2.39244576491579        4.11020676246408
F            2.12147080148537        2.41928540946596        5.07125917555506
F            4.21147154951216        2.75882210705077        4.70939907036424
F            2.75545773227577        3.39062971996035        3.26265014024688
B            2.88685288401587       -2.74465246529476        4.44767652118183
C            1.39222946508568       -3.32269672279381        4.16803864418006
C            0.81969087078035       -4.23843442911402        5.05166202315385
C           -0.43991568072720       -4.77666322556304        4.82984950591367
C           -1.18320549205959       -4.41778805766227        3.71528838255239
C           -0.62175430644403       -3.51334916756452        2.82657144536787
C            0.63710991050149       -2.97335933152092        3.05185805790553
C           -1.41760702422505       -3.08900905917092        1.62668418673877
F           -2.18914530166832       -4.07488810763418        1.13399088747699
F           -2.26267498911366       -2.07362727389625        1.90845631972094
F           -0.65708026863753       -2.66325892011663        0.60802718469256
C           -1.02707875244213       -5.72653921395516        5.83287419655396
F           -0.10543262214975       -6.49797530283494        6.42963796830961
F           -1.66916432344627       -5.08015543543691        6.82897415172536
F           -1.93274781575081       -6.56517528037450        5.30032224386649
C            3.99515608161122       -3.83026777147088        3.95741508711584
C            3.71491983664263       -5.18014424984601        3.77503477610003
C            4.69333900050916       -6.08010260129798        3.36841503037264
C            5.99164119896011       -5.66432380604024        3.12683284869839
C            6.28501569947781       -4.31884839995395        3.30754704668167
C            5.30973269382704       -3.42373330637394        3.71733062757329
C            7.69541269424465       -3.86379183282069        3.06862971740128
F            8.53043563598748       -4.25062722379184        4.05628553790437
F            8.21729764813352       -4.37266050311121        1.93630651369582
F            7.82190948471055       -2.53332863341113        2.97529318422157
C            4.30594135132255       -7.51733417619461        3.17718605979227
F            3.70303666877000       -8.03830470076694        4.26080136946708
F            3.43457663751639       -7.67980070053636        2.16032527083279
F            5.34439640781829       -8.32356777382320        2.90453238525888
C            3.05405494256799       -2.46340025965559        6.04101196757874
C            4.21822636396849       -2.74754088286711        6.74663786371235
C            4.33628223351110       -2.46965204304351        8.10363596642968
C            3.29186749886056       -1.89713393056499        8.80895579738936
C            2.12287167515775       -1.60876714918946        8.11584628876152
C            2.00681073622716       -1.88577303931205        6.76321074053625
C            0.99043120924473       -0.99334361341009        8.88568208357794
F            0.57076650608754       -1.78485996392440        9.89397895675617
F            1.34093606945017        0.17209267273785        9.46685811436303
F           -0.09039010437920       -0.73031083880195        8.14124261923311
C            5.62423102558369       -2.81578274381064        8.79195108454143
F            5.86538003670508       -4.14195469037100        8.78882676363367
F            6.69162782688695       -2.24858262435014        8.19997805364485
F            5.66678503963203       -2.43556375697259       10.07889842065415
F            4.29685336297725       -1.55629182659330       -0.36513879269213
F            4.93076334884760        0.49650746046628       -0.30541914834944
H            3.52683402092917       -2.37417444311640        1.77176566698807
H            2.75520866638441       -0.00704189648103        5.23377813744463
H            3.62864250920291        1.89071249177426        1.50578641543797
H            1.36832942943600       -4.53847237415765        5.93239448480041
H           -2.16199710001003       -4.83620471806321        3.53957807111086
H            1.03437674451905       -2.26739924528281        2.33867571027067
H            2.71507271302977       -5.54886989702422        3.94827267763313
H            6.75227091094675       -6.35853135068206        2.80523919778615
H            5.57199352927557       -2.38391640618888        3.84508822604702
H            5.05708666467785       -3.19914452067051        6.23867818958788
H            3.37786595649795       -1.68035392229364        9.86235943233003
H            1.08147771520409       -1.65386963044349        6.25706046373100
