7
 energy: -14.155336786595 gnorm: 0.000547393570 xtb: 6.7.1 (edcfbbe)
N            0.77017673975976        0.84726024468829       -0.00183966940733
N           -0.61042382201753        1.00112336731476       -0.00311836287782
C           -1.13943817655427       -0.21221339199115       -0.00039244660773
N           -0.07460785614035       -1.17818052589223        0.00301721747078
C            1.01656313657069       -0.48974560063579        0.00188386100898
H            1.43294404259485        1.61778732257628       -0.00353331623494
H            2.03852593578685       -0.86517141606016        0.00359271664806
