57
 energy: -189.276926369395 gnorm: 51.969712649604 xtb: 6.7.1 (edcfbbe)
F            1.02403000000000        0.09214000000000       -0.03053000000000
C            2.35403000000000        0.09214000000000       -0.03053000000000
F            2.79737000000000       -1.02359000000000        0.54173000000000
F            2.79737000000000        0.15442000000000       -1.28291000000000
C            2.86070000000000        1.29610000000000        0.74676000000000
O            2.38736000000000        2.48734000000000        0.13578000000000
Al           3.01070000000000        2.57490000000000       -1.62510000000000
O            4.88070000000000        2.57490000000000       -1.62510000000000
C            5.35402000000000        3.69965000000000       -0.89895000000000
C            4.84735000000000        4.97478000000000       -1.55296000000000
F            3.51735000000000        4.97478000000000       -1.55296000000000
F            5.29069000000000        6.02824000000000       -0.87283000000000
F            5.29069000000000        5.03706000000000       -2.80535000000000
C            4.84736000000000        3.62848000000000        0.53235000000000
F            5.29069000000000        2.51274000000000        1.10462000000000
F            5.29069000000000        4.68194000000000        1.21248000000000
F            3.51736000000000        3.62848000000000        0.53235000000000
C            6.87402000000000        3.69965000000000       -0.89895000000000
F            7.31736000000000        2.58391000000000       -0.32669000000000
F            7.31736000000000        3.76193000000000       -2.15134000000000
F            7.31735000000000        4.75311000000000       -0.21882000000000
O            2.38737000000000        1.09372000000000       -2.58137000000000
C            2.86071000000000       -0.09752000000000       -1.97038000000000
C            4.38071000000000       -0.09751000000000       -1.97037000000000
F            4.82404000000000        0.95595000000000       -1.29025000000000
F            4.82404000000000       -1.21325000000000       -1.39811000000000
F            4.82404000000000       -0.03524000000000       -3.22276000000000
C            2.35404000000000       -0.16869000000000       -0.53908000000000
F            1.02404000000000       -0.16870000000000       -0.53907000000000
F            2.79738000000000       -1.28443000000000        0.03319000000000
F            2.79737000000000        0.88477000000000        0.14105000000000
C            2.35404000000000       -1.30148000000000       -2.74767000000000
F            1.02404000000000       -1.30148000000000       -2.74767000000000
F            2.79737000000000       -1.23920000000000       -4.00005000000000
F            2.79738000000000       -2.41721000000000       -2.17540000000000
O            2.38736000000000        4.14365000000000       -2.42970000000000
C            2.86069000000000        4.21013000000000       -3.76684000000000
C            4.38069000000000        4.21013000000000       -3.76684000000000
F            4.82403000000000        3.09440000000000       -3.19458000000000
F            4.82403000000000        4.27241000000000       -5.01923000000000
F            4.82402000000000        5.26360000000000       -3.08671000000000
C            2.35403000000000        3.00618000000000       -4.54413000000000
F            1.02403000000000        3.00617000000000       -4.54413000000000
F            2.79736000000000        3.06845000000000       -5.79652000000000
F            2.79737000000000        1.89044000000000       -3.97186000000000
C            2.35402000000000        5.48526000000000       -4.42085000000000
F            1.02402000000000        5.48526000000000       -4.42085000000000
F            2.79735000000000        6.53873000000000       -3.74072000000000
F            2.79736000000000        5.54754000000000       -5.67324000000000
C            2.35403000000000        1.22493000000000        2.17806000000000
F            2.79736000000000        0.10919000000000        2.75033000000000
F            2.79736000000000        2.27839000000000        2.85819000000000
F            1.02403000000000        1.22493000000000        2.17806000000000
C            4.38070000000000        1.29610000000000        0.74676000000000
F            4.82403000000000        0.18037000000000        1.31902000000000
F            4.82403000000000        1.35838000000000       -0.50562000000000
F            4.82402000000000        2.34957000000000        1.42689000000000
