13
 energy: -26.164374285425 gnorm: 0.000379047289 xtb: 6.7.1 (edcfbbe)
C            0.99885525162459        0.11825008541307        0.03536884227798
C            0.19847171519318       -1.12385659196841        0.55797798389655
C            0.56110046653836       -1.77372526885244        1.73256417923044
C           -0.17878073132765       -2.86424973615647        2.14916791393300
N           -1.22914272584525       -3.33888774352611        1.49017906599599
C           -1.57184370488306       -2.71554823247346        0.36910304719638
C           -0.90110518071606       -1.61745330005648       -0.13540092777764
O            0.57352914540864        0.60934880556752       -1.01845298857075
O            1.95961079923610        0.45579027128131        0.73938216874878
H            1.41232627702753       -1.40982420464833        2.29002139216831
H            0.06991577397241       -3.40094385291048        3.06083859225376
H           -2.43577705248436       -3.13342457301496       -0.14083062984647
H           -1.20360003374444       -1.12997565865478       -1.05116863950632
