18
 energy: -27.114495273629 gnorm: 0.000498482156 xtb: 6.7.1 (edcfbbe)
C            0.90459512375678       -0.06122536642347        0.09842235192249
C            0.46280657380352       -1.13665635513043       -0.90309967516807
N            0.24143948514832       -0.12989887234359        1.36446661515299
C           -0.51164837764759        1.05970293739443        1.80458547307921
O           -0.84272635790516        1.05733952390909        2.99269658891612
O           -0.73285930495029        1.89273912303776        0.92237780064345
C            0.78085113706401       -0.98323708344159        2.37868416877199
C            0.27335837246060       -2.43033522456643        2.31828158735867
H            0.64401615489376        0.92219809438593       -0.31180400112061
H            2.00358921694918       -0.11868873061570        0.22232129958158
H            0.80343407447305       -2.12562142769646       -0.60242888753330
H           -0.62188319048981       -1.14635565081202       -0.96361875764766
H            0.87010049577992       -0.91887633905753       -1.89089628666973
H            1.88757097016777       -0.99035343205335        2.34334893680927
H            0.45795279273004       -0.54335897933592        3.33044647996639
H            0.66052066977757       -2.95292931010537        1.44549253343235
H            0.58484897451960       -2.97414231681693        3.21075616029559
H           -0.81209681053150       -2.42746059032829        2.26825761220876
