7
 energy: -31.189010306949 gnorm: 0.000016077189 xtb: 6.7.1 (edcfbbe)
F            0.96003199791094        0.03692999999419       -0.08592999998648
As           2.72459999883217        0.03692999996565       -0.08592999992009
F            2.72459999999516       -1.63989015128651       -0.63545234098463
F            2.72460000018166        0.58645234099602       -1.76275015120464
F            4.48916800320496        0.03693000012552       -0.08593000029210
F            2.72460000002478        1.71375015125017        0.46359234105658
F            2.72459999985033       -0.51259234104505        1.59089015133137
