9
 energy: -23.460887916554 gnorm: 0.000876499625 xtb: 6.7.1 (edcfbbe)
C            0.95494459665149        0.02868622821703        0.09393079881273
O            0.47676693051371        1.31860004812944       -0.08752382834909
S            1.06235776496969        2.21796566904836        1.20065088615103
O            0.52287218092519        1.55869998462350        2.37829576741592
O            2.50771194989628        2.11311269960810        1.08893396661607
O            0.53327038777171        3.54117076490233        0.95514026599182
H            0.59632780329916       -0.59830357702563       -0.72772896116387
H            0.60220001884667       -0.36118822426434        1.05507917028063
H            2.05020836712612        0.04327640676120        0.11445193424476
