5
 energy: -3.449229613623 gnorm: 0.000124029448 xtb: 6.7.1 (edcfbbe)
H            0.83976542450718        0.01874582038119        0.05500932435366
B            2.06862193569928        0.01875028378112        0.05501004578980
H            2.47824247989274       -0.71321949989776        0.95307418180921
H            2.47824247977680       -0.39301001957149       -1.02792689021904
H            2.47823768012401        1.16248341530693        0.23988333826637
