3
 energy: -11.150824887468 gnorm: 0.000280868110 xtb: 6.7.1 (edcfbbe)
N            0.96711933244475       -0.02053886572779       -0.06517279929274
O            0.33714562924571       -0.99218468169999        0.46067348559423
O            2.23779503830954       -0.06763645257222       -0.03969068630149
