13
 energy: -50.091913404989 gnorm: 0.000745338089 xtb: 6.7.1 (edcfbbe)
O            1.20073410306448       -0.15609596443642       -0.08738450194170
C            2.38636469555871        0.06041060265206       -0.19904454495815
O            3.11827322780596        0.67186190499336       -0.93446680068509
C            3.23996754106049       -0.72676550127132        1.07306090984378
C            2.82522000067491       -0.20028536808874        2.44798600977606
C            1.32739597613948       -0.37101639320244        2.80268382420667
F            0.78491651396111       -1.49957978093468        2.37170554839082
F            1.19364941054745       -0.39277190250693        4.14945911755094
F            0.58958536608431        0.65124340402382        2.39174427841238
F            3.53181619178127       -0.79144456233631        3.46388730090611
F            3.11083925628745        1.11952082566722        2.55166263250045
F            3.01352331163301       -2.07982749213478        1.05463067780908
F            4.59760440540137       -0.59631977242480        0.97550554818867
