13
 energy: -38.947756460170 gnorm: 0.000842602436 xtb: 6.7.1 (edcfbbe)
N            1.15491847185024       -0.06320451186340       -0.09055037716061
C            2.30626190587860       -0.09487013183025       -0.08540399136433
C            3.69945010020062       -0.08938505617496       -0.08213575103256
N            4.46832690191791       -1.20002622803295       -0.07566716483061
C            5.71179993779821       -0.71661433038356       -0.07328726946293
N            5.83266678546604        0.61097813129287       -0.07760881141398
C            4.55251100440983        1.04326284131534       -0.08340262185027
C            4.17365478760713        2.38377848925878       -0.08877887028190
N            3.82575019613392        3.48179403658146       -0.09409489355373
C            6.88740610121096       -1.61473065257015       -0.06634127065341
F            6.92845501861030       -2.44074837017798        1.00736719271623
F            6.94042180140328       -2.44170656828023       -1.13893007549848
F            8.06206698751295       -0.96236764913499       -0.06014609561342
