23
 energy: -42.474223560385 gnorm: 0.000639660291 xtb: 6.7.1 (edcfbbe)
C            1.06018005988436        0.04302014591298        0.12404591714115
C            0.26042514442457       -0.76290190452303       -0.93499826572678
C           -0.94326905502607       -0.38053392047943       -1.36093917508419
C           -1.78792575328369       -1.02339314498967       -2.35269124139970
C           -1.43876941729486       -2.24140198912969       -2.94905392259769
C           -2.25603163749452       -2.83279635051695       -3.88811028015959
O           -1.99935340770273       -4.03944429970228       -4.53324681176870
C           -0.81989634054203       -4.71612421926403       -4.19186156263214
C           -3.45801749320119       -2.21795947539980       -4.26451002245621
O           -4.27222601757183       -2.80708873918696       -5.20133029034699
C           -3.81375553238904       -1.01492345669148       -3.68074993200250
C           -2.99030965602376       -0.42915591730422       -2.73753590340385
O            0.47310003943467        1.00686994311197        0.63595562012242
O            2.20809103816614       -0.38269888092165        0.33145074092908
H            0.77070584073427       -1.64263927780523       -1.31044269923539
H           -1.34202553233414        0.52497388668854       -0.91646861522697
H           -0.51409434426043       -2.70955988205908       -2.65447842065145
H            0.06819600984871       -4.12069803711229       -4.42812989589774
H           -0.80233051317136       -4.98196006566761       -3.12974593453650
H           -0.81456740694451       -5.62637450864394       -4.79226018289642
H           -3.83389275861556       -3.62585915585932       -5.46685313913246
H           -4.74268333793938       -0.55285234442022       -3.97914128515210
H           -3.27942992869778        0.50974159396330       -2.28841469788500
