18
 energy: -32.958506018890 gnorm: 0.000577820704 xtb: 6.7.1 (edcfbbe)
C            1.42481999789425        0.56741175556355        0.38390401287718
C            0.40501232183764       -0.01818146564842        1.36784816027252
C            0.27322127057390        0.79095982295512        2.65812339279174
C           -0.14508268777582        2.23340870197138        2.40442795849393
O            0.86293849257113        1.58016454684678       -0.38749128149009
S            2.03246060191367        2.74180508224472       -0.62756495083488
O            2.35187224386396        3.23059859452539        0.70646701407428
O            3.13309512756216        2.03165198385998       -1.25418657092902
O            1.37143780098696        3.71025920250761       -1.47312641020160
H            1.79574336498207       -0.22594545831595       -0.28486918183709
H            2.28548454999369        0.98367597463475        0.91930505645229
H           -0.56066317994959       -0.05804637371542        0.85952536500870
H            0.70516672314354       -1.04122772108226        1.61659963603418
H           -0.45996048140877        0.29575372422550        3.30830604893058
H            1.23521399735991        0.78488064318995        3.17703514667808
H           -1.07376913314746        2.26586691902154        1.83864707006512
H           -0.29029146335353        2.75817639814567        3.34889576978564
H            0.62382045295266        2.74630766907033        1.82883376382810
