16
 energy: -61.690477225709 gnorm: 0.000621207734 xtb: 6.7.1 (edcfbbe)
F            1.32984916688008       -0.41391721637970       -0.37132850576606
C            2.60827596877940        0.00409952436652       -0.10168608589377
C            2.89998976837875        1.69538059616107       -0.61428661922406
O            4.06878778224060        1.94719155128472       -0.51797918901216
O            1.86780196749835        2.21269536582591       -0.93395352888709
C            2.86533412691154       -0.21324289315822        1.39312177705218
C            2.32914326761300       -1.55161169587472        2.00085460587009
C            2.80113007001195       -2.84848488990072        1.29864554852700
F            4.11401496951414       -2.87358586677190        1.09800360447199
F            2.51722379011498       -3.90273918213294        2.08452862082892
F            2.18892376742276       -3.06751845493063        0.14518502829357
F            2.73634964567404       -1.64586452734740        3.29478244457566
F            0.98294009435152       -1.56504500432760        2.04044589305806
F            4.18816265166513       -0.17457554061341        1.66547586873000
F            2.30185651282353        0.77703401559954        2.12684968289949
F            3.41754645012023       -0.88209578180051       -0.77507914552383
