15
 energy: -33.269301293296 gnorm: 0.000712321445 xtb: 6.7.1 (edcfbbe)
C            0.54606426096533       -0.06535384248709       -0.62269486808183
S            1.34989039291057       -1.67440212138228       -0.91090486438596
O            2.40010707272839       -1.77793150795653        0.08440434808986
O            0.31365038154094       -2.68819897485383       -0.78249674844214
N            2.00374429360195       -1.61347511517330       -2.35488150317014
S            0.95358136863518       -1.70894687644265       -3.54018792102160
C            0.40176095095183       -3.44366465344147       -3.62253846914611
O           -0.23824867188290       -0.90109831711655       -3.33033785474128
O            1.62788279292994       -1.44649529663756       -4.79734447413069
H            0.00901431151507       -0.12468890171893        0.31459321104601
H           -0.11772514136800        0.08446700643510       -1.46362834542639
H            1.32827974732191        0.68041367849511       -0.58854147043817
H            0.05380825727600       -3.68584027880739       -2.62717893778607
H           -0.39099719695924       -3.50542373419724       -4.35673427188157
H            1.25803717983157       -4.03951106471570       -3.90803783048362
