25
 energy: -61.666678599111 gnorm: 0.000758277563 xtb: 6.7.1 (edcfbbe)
C            1.10408175411095       -0.22700584072083        0.08704883236831
C            0.39403443099537       -1.06029937868147       -0.98564914218147
C            0.87829623723957       -2.50502790039103       -1.05283294607182
O            0.62035484317060       -0.47503714743275        1.39589532648354
C            0.95755240232797       -1.64836453757040        2.01445747344601
C           -0.05381545386446       -2.35693058129988        2.66417485612021
C            0.20409672507795       -3.52632010647282        3.36889041447587
C            1.47515135292111       -4.07653426152678        3.46116434671418
C            2.47484425426656       -3.36103724400692        2.81756574681687
C            2.24208513526533       -2.17568161570744        2.12836221410117
F            3.29559448594802       -1.53583483880393        1.55305801453376
F            3.74597812156912       -3.79199453912560        2.84058772300022
B            1.85412692586874       -5.51407250419846        4.24962162418813
F            2.31763386812559       -6.42439729054454        3.30044219615028
F            2.84748533410689       -5.26962630379052        5.19207776812992
F            0.75474742522611       -6.05762562666384        4.89087679833086
F           -0.85193698311376       -4.11784156523918        3.95000486004306
F           -1.31888993984205       -1.87830394703897        2.58469398915914
H            0.88420618928973        0.83366229142283       -0.06992185539957
H            2.18621300511004       -0.37112895871032        0.01965948187459
H           -0.67894792606791       -1.03908956467409       -0.78383687722483
H            0.56907750859346       -0.57482885184236       -1.94932974470579
H            0.60145055931700       -3.05609260503837       -0.15753530283430
H            0.43540080671737       -3.00773250428939       -1.91029219505557
H            1.96125893763975       -2.54105457765250       -1.15505360246172
