12
 energy: -47.784313049514 gnorm: 0.000923531967 xtb: 6.7.1 (edcfbbe)
O            1.20457226162034        0.00973966834803       -0.12550078512472
S            2.60121936463893       -0.13834042581773        0.16726902941891
O            3.10492945542249        0.66774641215760        1.24119640187662
O            3.12166131822196       -1.47170985725955        0.07832472758874
O            3.29117082573189        0.66269493876370       -1.29495002867820
C            4.57022039899724        0.67518632279717       -1.30833982789328
F            5.17237585854226        1.33246758247734       -0.26596413261264
F            5.18010041808963       -0.55283101532356       -1.29544817167478
C            5.10706055214231        1.38013256466515       -2.59385074311175
F            4.67793181357574        0.77859995937966       -3.70570605246751
F            4.71410044085985        2.65417509518245       -2.66177460768357
F            6.44595729215738        1.39071875462974       -2.65833580963781
