14
 energy: -27.201711026208 gnorm: 0.000328684890 xtb: 6.7.1 (edcfbbe)
Br           1.00578167003018        0.04392965079127        0.06330716422725
C            2.93750630784556        0.03439665718456        0.07276484480629
C            3.58268303716522        1.26828722475342        0.07555808389031
C            4.96269441359750        1.31910880417494        0.08230746723800
C            5.67044131452636        0.12456256620216        0.08613369212590
C            4.97335963345650       -1.13708097016325        0.08310180765881
N            5.89618335968617       -2.13365346274161        0.08793780717815
C            7.04874860138966       -1.46414196760727        0.09335095832686
N            7.00489712913505       -0.13267924929400        0.09275136638780
C            3.58459963666969       -1.17909967997729        0.07630469337470
H            2.99764600105949        2.17882725765521        0.07241873190076
H            5.47593636091729        2.27199606613011        0.08453579479815
H            7.99422978495900       -1.98889318764661        0.09816169895471
H            3.04622274956234       -2.11653970946165        0.07395588913232
