19
 energy: -55.336034467442 gnorm: 0.000483897944 xtb: 6.7.1 (edcfbbe)
C            1.18945534065460       -0.05645602041068        0.16440849245060
O            0.31124387173271       -1.14419008170702        0.32926851660425
C            0.76561522423784       -2.41169000388247        0.10980742258451
C           -0.17058208215256       -3.43562557070368        0.27917976087082
C            0.15092983672587       -4.77154731372859        0.08459658915436
C            1.42125314059761       -5.18728029666934       -0.29248558800844
C            2.34269047888325       -4.16515637407881       -0.45319687457951
C            2.04294825966820       -2.81743685977341       -0.26266999285470
F            3.04335554808440       -1.91056853062375       -0.45376844288490
F            3.60824322530868       -4.43501166938505       -0.81047792393277
B            1.88552135713846       -6.78174399200082       -0.55458237698123
F            2.38184886429705       -6.89703653499165       -1.85136078163229
F            2.88138711372552       -7.11615670551379        0.36106063352085
F            0.82629027893260       -7.66065375946225       -0.40483807533110
F           -0.83899272343204       -5.65620440671096        0.28156583554185
F           -1.42880681585388       -3.08768523942719        0.64496042782649
H            0.59155172380595        0.82867328585811        0.37986551033725
H            1.57262777029566        0.00623530108236       -0.85793936790174
H            2.03042958735024       -0.10370522787130        0.86165623521551
