7
 energy: -19.632778347185 gnorm: 0.000494101300 xtb: 6.7.1 (edcfbbe)
S            1.09775723932756       -0.05913006219665        0.01431457554292
N            0.54460690312883        0.11736661877582       -1.62429207035315
O            0.53904890071565       -1.32945051036273        0.44618942797271
O            0.52583062649079        1.10251864044629        0.69822890424591
O            2.54692777320581       -0.02419885476007       -0.09202283020168
H           -0.45488230487395        0.17931892289680       -1.50200745669306
H            0.88652086200530        1.03630524520053       -1.86186055051365
