9
 energy: -21.590696333844 gnorm: 0.000116212050 xtb: 6.7.1 (edcfbbe)
C            0.96841120848445       -0.06816445572952        0.00723301364238
N           -0.18132941872326       -0.06815885369569        0.00723278708493
B            2.52719247611419       -0.06817184989910        0.00723381680517
C            3.04676809509866        0.05974498658911       -1.45682857604107
N            3.43005884865203        0.15409897728682       -2.53668491968631
C            3.04680650503920        1.13577764150838        0.85003129348189
N            3.43002480016649        2.02379449959838        1.47170150311540
C            3.04676041194070       -1.40005163838292        0.62847874915692
N            3.43004707322753       -2.38240930727547        1.08670233244070
