28
 energy: -41.843716461585 gnorm: 0.000550605192 xtb: 6.7.1 (edcfbbe)
C            2.88925981540272       -0.78061988799083        0.42710878937599
N            1.75297755991202       -0.62253115190966        1.29355368679733
C            1.18952341357953        0.56624800771595        1.64950569797561
C            0.14504053526097        0.28941191788405        2.47582114157981
N            0.09578008712206       -1.06490148642545        2.62597472933165
C            1.07135818204682       -1.59628650525754        1.88837798382007
C           -0.94953835649241       -1.82584688473084        3.24345234659023
C           -1.63530945730719       -2.69050776704317        2.14233089759355
O           -1.10830742479397       -2.74739882375000        1.05506491897220
C           -2.85778434611134       -3.39214514848683        2.51372551736347
C           -3.51676980202686       -4.10842219237966        1.50494037044893
C           -4.67013088504604       -4.81178710307354        1.78447775040700
C           -5.18167095627811       -4.81490412157013        3.07385382369490
C           -4.53610452704834       -4.11153945159615        4.08183536450556
C           -3.38357829184864       -3.40120253937879        3.81121277984507
H            2.74715717119129       -0.19541158795342       -0.48109329835339
H            3.00667099435962       -1.82829892577949        0.16001186629579
H            3.79654074794767       -0.43448382481002        0.92524054664556
H            1.55840917640887        1.50743299180884        1.29628983329652
H           -0.54585672507694        0.95019689164620        2.95812952789784
H            1.28434462816776       -2.64350398603195        1.80143979816519
H           -0.54079706802328       -2.50194594720626        3.99981055312394
H           -1.66600378936288       -1.14768116212615        3.70663154963164
H           -3.10122480224836       -4.09516821476038        0.50910141680448
H           -5.17036294942811       -5.35950836084909        1.00084334008360
H           -6.08177510270557       -5.36663144452138        3.29673617496628
H           -4.93593223639986       -4.11975125480381        5.08430710806841
H           -2.89637559120268       -2.87034203662910        4.61433578507455
