60
 energy: -74.006717725048 gnorm: 0.000268359922 xtb: 6.7.1 (edcfbbe)
C            0.81654603276238        0.18464940290621        0.42150434932023
C            0.45775477336546       -0.34504286523057       -0.96498010228254
C            1.17615658931833       -1.64815995498744       -1.36694419710252
C            0.57468345769801       -2.89080476303521       -0.67547416952638
C           -0.45991313323431       -2.81797206534481        0.24901933634779
C           -0.94404749828051       -3.96399779607393        0.85916793821072
C           -0.42432039744236       -5.20545220305040        0.54333633897310
C            0.58335537812472       -5.29428234426495       -0.40119040009090
C            1.07280552379506       -4.15049539276739       -1.00411993001097
C            0.86166306907486       -1.98965953724462       -2.79900304081130
O            1.54247546084968       -2.64708582303833       -3.55233720302856
O           -0.34570812367537       -1.51971921104775       -3.19809646465650
C           -0.87785761108809       -2.03659991580002       -4.40623189489344
C           -0.88224676206681       -1.03049658281104       -5.56289028850731
N            0.41056870440314       -0.73220988166742       -6.24826525121390
C            1.16101730555139       -1.97731190916544       -6.61860886797181
C            0.42274736145679       -2.95139084697193       -7.52269510504461
C            0.12169830375513        0.04572394232401       -7.49549279165391
C           -0.48755207152976        1.42480166977919       -7.29383100003015
C            1.29120478875375        0.06386380175152       -5.37007683235848
C            2.70114476199337       -1.62300070541980       -1.10273971141921
C            3.62119446658598       -0.92604966712632       -2.11780526549310
C            3.45170106175742        0.58973596882905       -2.18393134228702
C            5.06852767695904       -1.24512112161609       -1.73730153618692
H            0.84613610610677       -0.61161260413667        1.15971033472409
H            0.07284382606441        0.91395116953351        0.73408613637921
H            1.78161145541547        0.68270197993360        0.41466317841994
H           -0.61754109979614       -0.51518554352891       -1.02690759611889
H            0.68792292153275        0.42769172405725       -1.69935287334109
H           -0.90132237375106       -1.87595979027673        0.52541706762760
H           -1.73550207493839       -3.87767837220731        1.58813977383519
H           -0.80381476889273       -6.09455767264367        1.02218138493303
H            0.99168925081274       -6.25589482037680       -0.67244974138343
H            1.84570088920694       -4.24922093659568       -1.75227234782092
H           -0.35793999856894       -2.96513758634625       -4.65924762990146
H           -1.92584195482111       -2.26716730536807       -4.18958900641304
H           -1.57607137823254       -1.40983601320940       -6.31453481785150
H           -1.27483572738909       -0.08974129380082       -5.17316165111431
H            2.08053219809435       -1.65779708528225       -7.11326799832300
H            1.44617751160115       -2.47977595508476       -5.69058826297421
H            0.23480244796662       -2.54437955780049       -8.51226863603339
H            1.05807569594974       -3.82451451498665       -7.64948331934498
H           -0.51464734257211       -3.29246002268636       -7.09333124708098
H            1.06693795682899        0.15297782681569       -8.03194960818523
H           -0.55338569223832       -0.55010805144987       -8.11035209593198
H            0.17095055896134        2.09446380769716       -6.74924864278843
H           -0.64835958714596        1.85963676124881       -8.27740440681033
H           -1.45244055156736        1.38661481872825       -6.79717559072660
H            0.74072035854430        0.88589798838034       -4.91961598375817
H            1.69739425514494       -0.56015439974978       -4.57894053948536
H            2.12409294559840        0.46437806752474       -5.94514186926360
H            2.85989864068883       -1.17900102251904       -0.12149144098725
H            3.04528436008728       -2.65487724620003       -1.03891664685073
H            3.44026146439929       -1.35065548798726       -3.11060233662896
H            3.59252667861597        1.02933170475079       -1.20004000715845
H            4.19990107860280        1.01571310069238       -2.84929485138503
H            2.47251571404411        0.88052626501522       -2.55562006765150
H            5.24317165330848       -2.31789474347938       -1.73973330364176
H            5.75772807886290       -0.78708007451055       -2.44239500884213
H            5.29277738456942       -0.86307731307707       -0.74434291644031
