17
 energy: -24.397801319657 gnorm: 0.000397394863 xtb: 6.7.1 (edcfbbe)
C            1.29013814449072        0.12124510578921       -0.24523404822284
C            0.44793252743120        0.10853736274134       -1.51684797526763
N            0.78268211772393       -1.02979665395961       -2.33810529521384
C            0.40669790150262       -2.30878067143612       -2.18067498972733
C            1.04089983568477       -3.01739020581020       -3.17434035298335
N            1.75649715797703       -2.09314717227815       -3.85668487685370
N            1.59534706068212       -0.90466346025915       -3.35547569887183
N            2.61774586304303       -2.30979625932686       -4.86069593678604
H            1.11325012960067       -0.76935802777630        0.35234553635036
H            1.02319732649076        0.98983907879141        0.34847541598430
H            2.34820125667659        0.18337328096944       -0.48543536429336
H           -0.61503344741301        0.05828730247659       -1.27240467044761
H            0.64520936220271        1.00104219826496       -2.11248768559917
H           -0.26187445902603       -2.63884478828114       -1.41229292771923
H            1.02776527119685       -4.05899295176942       -3.41825717444035
H            2.93895359592634       -1.46027777973727       -5.30904551539602
H            2.39211035580975       -3.07676635839877       -5.48028844051234
