55
 energy: -70.855165943241 gnorm: 0.000582142596 xtb: 6.7.1 (edcfbbe)
C            1.42281663871780        0.15252691187560       -1.34806328731333
C            1.01631338410055       -1.15418430698523       -2.01864800728565
C            1.34337523455639       -2.38979271326029       -1.17828074989298
C            0.61490351481013       -2.46646486268535        0.16510435919089
C           -0.91346254236334       -2.47914177324093        0.07893204125567
C           -1.50788046999920       -3.63110591033170       -0.73517640559704
C           -1.24167021186251       -5.02061343114607       -0.15111615385911
C           -2.04687011834166       -5.30964538709022        1.12073244803997
N           -3.45082103289626       -5.53089636028988        0.84038692524317
C           -3.98746314472638       -6.68260855912622        0.40346936775463
N           -3.31579410440635       -7.82385182656746        0.21118079026948
N           -5.31517103699907       -6.55367489376796        0.24165414212946
C           -5.66240518245931       -5.25058371356372        0.57521277245879
C           -4.47765962037373       -4.60043349730255        0.95523580715198
C           -4.48548999326038       -3.27459316694351        1.35524835549405
C           -5.70467694682121       -2.62178026621198        1.35569882285966
C           -6.87824322295179       -3.26590336210428        0.97299938499033
C           -6.87996153195838       -4.59120484815543        0.57759510505731
C           -6.21238024109893       -7.61833134403162       -0.16753420934450
C           -5.76137649292570       -8.25722581532314       -1.45930612630718
C           -5.52411650005257       -9.62556573830012       -1.52990738870430
C           -5.11658954315021      -10.20137402763886       -2.72246780264167
C           -4.93206200795185       -9.41308116332757       -3.84542178546091
C           -5.16043785349938       -8.04772255066170       -3.77809784983910
C           -5.57466864353755       -7.47100107805923       -2.59103581648801
H            0.83981343751110        0.33507109427774       -0.44885624646296
H            1.26412880910486        0.98726398923474       -2.02631753454827
H            2.47580618079240        0.12880102672919       -1.07766238453785
H           -0.05014153785322       -1.12956368150060       -2.25113878481551
H            1.55121279685989       -1.24233121484568       -2.96676184721728
H            1.12494070665133       -3.28460998586778       -1.76583847363508
H            2.41656523924592       -2.39461230120584       -0.97528007892074
H            0.96106297953451       -3.35809182436630        0.69368359514123
H            0.90667007408907       -1.60967884602833        0.77370322260448
H           -1.30470925304951       -2.50064368094836        1.09927864035681
H           -1.25067783539255       -1.54410159041582       -0.36942294686674
H           -2.58650399878791       -3.47976213919867       -0.82968511899842
H           -1.09060836595873       -3.59745773206107       -1.74134180367535
H           -1.47989737427572       -5.77474590229167       -0.90597561305440
H           -0.18276410488828       -5.11583623765159        0.08625553288009
H           -1.65414514367085       -6.19270577478007        1.63300610605105
H           -1.97691523115950       -4.46781848653647        1.80921794260318
H           -2.31050017355797       -7.82112616806666        0.23166965918900
H           -3.77427791033679       -8.57836047331852       -0.28076992627578
H           -3.58516779751375       -2.76221291035963        1.64925963139934
H           -5.74685284811364       -1.58829905449455        1.65932940024224
H           -7.80747212531112       -2.71958359256800        0.98650143093752
H           -7.79517595178244       -5.08012404977129        0.28672502055857
H           -6.27307581251649       -8.36667132315663        0.63012611776611
H           -7.20190815235024       -7.17534277825542       -0.29547758448858
H           -5.68290830595311      -10.24632771168680       -0.65912711201456
H           -4.94784918360374      -11.26563925847556       -2.77219718348965
H           -4.61824691347081       -9.86237938643195       -4.77423755337088
H           -5.02548957869612       -7.43267806371016       -4.65392763340497
H           -5.76473095598684       -6.40817825800739       -2.54223321314334
