25
 energy: -50.228948532268 gnorm: 0.000264228715 xtb: 6.7.1 (edcfbbe)
Cl           1.14754640173895       -0.03592525083619        0.04036694442383
C            2.85726506622504       -0.02456936168560        0.04888700436830
C            3.53045810440883        1.21315669930062        0.05251711083779
C            4.90234401103708        1.29381166284972        0.05950916315624
C            5.61472227275518        0.09440005248830        0.06294036120064
C            4.93705227055652       -1.14161309672066        0.05916939600124
C            3.55073721823576       -1.22435063287868        0.05210417746299
N            5.89928518679289       -2.12407126306585        0.06395821212050
C            5.60547935860014       -3.53425343110198        0.06165994584363
C            7.09602764242620       -1.51921063848666        0.07037493288020
N            6.96253366115232       -0.18577889151195        0.06992178753064
C            8.01093054665172        0.80480030596409        0.07541171753493
C            8.39239998980499       -2.30032395154298        0.07756109779530
F            8.45561294812385       -3.08894859305157        1.15413903085409
F            8.46831923914759       -3.08801766295705       -0.99887251146033
F            9.46070384172383       -1.51658892006420        0.08422193728688
H            2.94228985267503        2.11689706055096        0.04970830128270
H            5.39271496133673        2.25313454995823        0.06219781240349
H            3.03002789514103       -2.16670994542192        0.04927695500049
H            5.01596017381659       -3.78190998419002        0.94563442670780
H            5.02529163340799       -3.78089140494931       -0.82875584802542
H            6.51253033864911       -4.13180356714734        0.06607755401505
H            8.63542027247794        0.70442867213307        0.96368879618627
H            8.64497951760827        0.70406970944746       -0.80602737888383
H            7.55702759550637        1.79158788291949        0.07275907347659
