42
 energy: -47.910987436567 gnorm: 0.000370340359 xtb: 6.7.1 (edcfbbe)
C            1.04918962236283        0.06204563823430        0.31294860798774
C            0.64902242830540        1.44078650570188       -0.19793567145580
C            1.11366650642766        1.71278522233632       -1.62958323229109
C            0.54235768038292        0.76434226912729       -2.68600460427001
C           -0.98496127095005        0.73633128288085       -2.77383249427770
C           -1.64080501236399        2.08941760286827       -3.05627101971016
C           -1.17520105431349        2.77894186041026       -4.34117168228912
C           -1.36236805822634        1.95795072714419       -5.62000535905920
C           -2.80127706779811        1.53513135572272       -5.91208882005826
C           -3.75211763280143        2.70587959375345       -6.20668194232774
N           -3.38273415299934        3.35811153259586       -7.44875751791862
C           -2.54941160379107        4.40347127226026       -7.43482051245077
C           -2.11335992040175        4.98704698538544       -8.60765879341850
C           -2.54797078094340        4.47571506476986       -9.82282256013946
C           -3.41540038807750        3.38995458400551       -9.81623473610352
C           -3.81188021594253        2.85116926149219       -8.61057968618014
H            0.53721147034188       -0.72617432454210       -0.23328428216281
H            0.79244063549689       -0.03655046733070        1.36480556697958
H            2.12163156253872       -0.08583175406104        0.20827701501728
H           -0.43435569092846        1.55530601335238       -0.12717307233359
H            1.09661969417835        2.19863427238146        0.44916069282565
H            0.86249656149373        2.74402621951855       -1.88887462708721
H            2.20263814960832        1.62990984562051       -1.66132579464543
H            0.96083203618990        1.04131725108898       -3.65690726702934
H            0.88445053314773       -0.24940758038773       -2.47316084986799
H           -1.27223497923588        0.01865640288921       -3.54640151343010
H           -1.38741736954490        0.36220328184860       -1.83167089150475
H           -2.72481543782991        1.95053351260783       -3.08282475822320
H           -1.43132940174020        2.76343820944690       -2.22480757427898
H           -1.69993219546759        3.73569985190827       -4.42006101346741
H           -0.11368043273058        3.01098785020236       -4.25127303697787
H           -0.96002620351337        2.52188756326728       -6.46826910574286
H           -0.76450086695843        1.05047883076186       -5.53760983565546
H           -2.80864957825065        0.84978325659129       -6.76268132850278
H           -3.20123120035297        0.99823371527298       -5.05314098390567
H           -4.77392216514652        2.33245000503921       -6.29449435577190
H           -3.71169630385075        3.43017567249960       -5.39294567499651
H           -2.23945232475702        4.77922938214055       -6.47102852908555
H           -1.44310735244730        5.83051094695708       -8.56532379388073
H           -2.22161476542674        4.91401822706757      -10.75265027697535
H           -3.78144747174352        2.96443052026838      -10.73677244241668
H           -4.48297598194064        2.00602253690292       -8.56221224291697
