30
 energy: -42.897469621328 gnorm: 0.000723430892 xtb: 6.7.1 (edcfbbe)
C            2.17103929913190        0.98194977315167       -0.53892654088251
C            0.74438063600957        0.81082034322703       -0.95854758777012
O            0.21767455336194       -0.23348208192670       -1.19906625449206
C           -0.05550492542422        2.13562045071740       -1.09047421071775
N           -0.10733816634749        2.85025750093840        0.15690431634834
C            0.42097290562313        4.04604695204869        0.44717002893494
C            1.16155729329507        4.89497192899996       -0.50877606535771
N            0.17214782703839        4.35678011934555        1.72542659790862
C           -0.55434338530238        3.32598574881260        2.29464391564865
C           -0.73123598783102        2.35934156498116        1.29015612660825
C           -1.42313172659559        1.17827475810784        1.52365953791998
C           -1.93012838007720        0.99938847414273        2.79466761468349
C           -1.75616518417308        1.95787343792298        3.79651548955176
C           -1.06967593749311        3.13365068118729        3.57037886805046
C            0.57664799138098        5.56505880372196        2.39916060906306
H            2.63413811631477        0.00867070709145       -0.40680186155623
H            2.23858175632671        1.54222156567109        0.39138431149673
H            2.71423778892774        1.52668439366935       -1.30869364474245
H            0.41247525564602        2.75383340376373       -1.85758259135443
H           -1.07307514946642        1.88295960778368       -1.40430876913371
H            2.10650131089619        4.42909594382828       -0.78975806411498
H            0.57867228089125        5.04541544622209       -1.41718026815997
H            1.37605626964212        5.86767566651346       -0.07784104733729
H           -1.55409239568634        0.43478746281121        0.75502994073083
H           -2.47455260589408        0.09725775974141        3.02219402467518
H           -2.17121525139138        1.77250231896038        4.77420633404205
H           -0.94767882174199        3.86253579986134        4.35445829249757
H            1.65504347245917        5.70580941572541        2.32304332564421
H            0.06827868650683        6.43220794198457        1.97473836965216
H            0.31064247397444        5.48765411099849        3.44970920216375
