47
 energy: -75.304682113089 gnorm: 0.000517926866 xtb: 6.7.1 (edcfbbe)
C            2.61989959814631       -1.83877786476443       -0.24641729929063
O            1.46948796518138       -1.68779056912983        0.59183393797284
C            1.65101459276513       -1.40395009311878        1.86014448682427
O            2.69373001729238       -1.22517141153261        2.42826938572736
C            0.29647687095619       -1.32010505518101        2.59573647712902
N            0.46165922485648       -0.57932027744414        3.81442199419405
C            0.25761489856144        0.78106028188540        3.94818992686193
C           -0.26601145326932        1.73219385737563        3.08357469974974
C           -0.31292272929831        3.03471542898778        3.53788926079035
C            0.15629900068914        3.38456291683388        4.80499036280152
C            0.67875718198578        2.44490915914693        5.67069579393837
C            0.71274620551450        1.12685377706740        5.23133625937947
N            1.17170869415669       -0.04084360589454        5.81707682771908
C            1.03589247124228       -1.03951067332471        4.93738057754549
C            1.46722744260745       -2.43538438033178        5.12643478946176
C            1.71805851527757       -0.15070514764322        7.14904144550189
C            0.88734322609231       -1.10062695118427        8.05963374258574
O            1.28963278189126       -2.23590916132348        8.20597348259538
C           -0.31127252891958       -0.58371296181368        8.69723774897691
C           -0.91600455009347        0.64103311061244        8.37861845673423
C           -2.04896349255891        1.04909033901292        9.03360077964935
C           -2.62258643797201        0.26293348823210       10.04722393242027
C           -2.02968683826280       -0.96422742876851       10.36536078364038
C           -0.90239245021605       -1.37403967669816        9.69396950256312
O           -3.71320744891505        0.76956932893587       10.62913574111624
C           -4.34791741498132        0.05603064064470       11.67213662338449
H            2.45750479264127       -1.22958295288601       -1.13352814318379
H            2.70436466455965       -2.88792601773765       -0.52802433498925
H            3.51729522074661       -1.51688556332484        0.28236315671310
H           -0.44041553912880       -0.83285404206840        1.95725146339228
H           -0.04291844217988       -2.33777591562397        2.80702819858138
H           -0.61371891240808        1.47649991057482        2.09624011732964
H           -0.71061750600572        3.80385134698028        2.89558882434250
H            0.11558674400685        4.41725937830541        5.11212964098048
H            1.05621037064314        2.74057047693548        6.63655427924700
H            0.65876353223785       -3.12474163713227        4.88520346018610
H            2.30120187473884       -2.64600383109909        4.45506961177953
H            1.78120097171932       -2.62664993588512        6.14882375060520
H            2.72756164405867       -0.57027402143625        7.09334407567975
H            1.77276571147395        0.84306812685072        7.59040395833353
H           -0.51839123278165        1.27283451424819        7.60176888538987
H           -2.52488486726433        1.98576879865149        8.79167926195946
H           -2.44561574816126       -1.59564950945098       11.13349200714975
H           -0.43880997530659       -2.31867865863591        9.93519294249385
H           -4.73004587268168       -0.90585325446960       11.32044410190441
H           -3.67086867433321       -0.10125851112378       12.51556970743876
H           -5.18003209928388        0.68153422771372       11.98872531472673
