22
 energy: -31.151196252030 gnorm: 0.000172545630 xtb: 6.7.1 (edcfbbe)
C           -1.36183004921017       -0.02522186538112        0.06134373804664
C           -0.68107184746673        1.18560444273616        0.09261191005755
C            0.69340945930699        1.19194953618858       -0.01234293302127
N            1.38356797786842        0.04770230699892       -0.13175357467989
C            0.74491005495721       -1.13184082875153       -0.15770910418252
C           -0.62913579213599       -1.19850307521599       -0.06934664831379
C            2.80572740508768        0.08547454013393       -0.23176210746072
C            3.45006779880232       -0.69347700637878       -1.18778049882751
C            4.82940533467066       -0.64921713072921       -1.28150707745466
C            5.56190270475804        0.15866779679978       -0.42556596104268
C            4.91466462533981        0.92991373341756        0.52739223914870
C            3.53538051183364        0.90091526522412        0.62764138314964
H           -2.43728738660199       -0.05378841596311        0.13698507051567
H           -1.21086048858900        2.11965526985138        0.18911198414118
H            1.26118598186258        2.11047363896116       -0.02049269371654
H            1.35596633380428       -2.01905235034703       -0.23247072574027
H           -1.11712517190807       -2.15958778130020       -0.09426629656155
H            2.87845452554322       -1.29906736946598       -1.87479179269144
H            5.33049899765761       -1.24478711827692       -2.02772999236717
H            6.63712310398012        0.18721420100870       -0.50116458476332
H            5.48302742954575        1.55387999536199        1.19841949147914
H            3.03427849089364        1.47802221512756        1.39007817428487
