21
 energy: -28.150175415202 gnorm: 0.000497300405 xtb: 6.7.1 (edcfbbe)
C            0.92136673190051        0.04379280021078        0.02931991484640
C            0.42876373825756       -0.34368991382887        1.34165129577191
C            0.01997659745944       -0.65578550097895        2.42544169478733
C           -0.45548938470082       -1.05700231588445        3.72240810710093
N            0.48980855037376        1.39424311420268       -0.29416194295539
C            1.09663080794510        2.51635493625690        0.07817214160859
N            0.38459741929200        3.56227561107437       -0.33686304746457
C           -0.71172850976425        3.08989108129330       -0.98935090542928
C           -0.64732136192031        1.72876010153638       -0.95937463711106
C            0.71864321017283        4.94646803944935       -0.12937289787617
H            0.53101510964685       -0.63722248506632       -0.73227802051761
H            2.01500083464062        0.00712534333479        0.01560910525504
H           -1.54298188165509       -1.10895826564888        3.72296059220183
H           -0.05463880876577       -2.03947256910037        3.96676947709655
H           -0.12938024847660       -0.34450846299893        4.47852078798859
H            2.01613782294780        2.57046970702216        0.62882984244510
H           -1.44810858366330        3.73410208761644       -1.42485595996273
H           -1.32029290134058        0.99690280698150       -1.35773284954819
H            0.75127064474405        5.17344157196317        0.93679983244783
H            1.69330202504350        5.17182970987473       -0.56312390134192
H           -0.03234181213734        5.57549260269045       -0.60150862934317
