21
 energy: -31.422191968189 gnorm: 0.000733645512 xtb: 6.7.1 (edcfbbe)
C            0.62292911959092        1.18874453296026       -0.09077672356228
C            1.39598233152486        0.09776998374612        0.27260315531698
C            0.81188616413892       -1.16201756568365        0.33785506473545
C           -0.53864461747866       -1.24844949869842        0.03052129800027
N           -1.27681051216453       -0.21503129685390       -0.34103723809686
C           -0.71685784903270        0.97660456506459       -0.39959248619742
N           -1.25263598581003       -2.48948816235018        0.06493430551081
C           -2.29222192831644       -2.64414850634861       -0.77039038111209
C           -3.01589638626273       -3.81645490048109       -0.79142743397166
C           -2.66028262849311       -4.85289753187614        0.06299788740911
C           -1.59247094045835       -4.66410266996847        0.93270886841965
C           -0.90897319504752       -3.46741733159324        0.91688167535124
H            1.04704916754098        2.17762501739793       -0.14503230917149
H            2.44435431559329        0.21481612290004        0.49826513048077
H            1.40631790892792       -2.02793129642630        0.58063810155194
H           -1.36753201447763        1.78228480206692       -0.70507821953589
H           -2.52175798905618       -1.79676708752765       -1.40057951198462
H           -3.84505685617164       -3.91616093887765       -1.47349085618591
H           -3.20622907527312       -5.78326773793385        0.05851307966697
H           -1.29604271125513       -5.43543901741367        1.62547907545452
H           -0.09554631801922       -3.27372148210288        1.59912751792073
