33
 energy: -36.678240068778 gnorm: 0.000244341561 xtb: 6.7.1 (edcfbbe)
C            0.06130199212149        1.70248174422309       -1.23584323064648
C            0.32036670552562        0.96065525901022        0.06767373643378
O            1.22990525907749        1.63191950631026        0.93950003199144
C            2.56042211971754        1.68797059455717        0.50133585223712
P            3.35382510288254        2.34796595868313        2.01260053943543
C            3.04410605896476        1.16685359129676        3.36546465112061
C            3.82954013827075       -0.13377762089509        3.23107112911380
C            5.15507686478145        2.53749058099117        1.75541863950803
C            5.51534584188904        3.65543716302847        0.78229294610687
C            2.55060194834844        3.92576790122084        2.46072505034483
C            2.07975651348183        4.75100694130077        1.26675515720383
H           -0.27138555021614        2.71842446807749       -1.03676225648707
H           -0.72047896742993        1.18666496990944       -1.78477222316356
H            0.94929691932855        1.73443853194106       -1.86320230449609
H           -0.59906599909327        0.88729845683821        0.65129691899196
H            0.69560055874489       -0.05082659341566       -0.13553898144260
H            2.96045926637786        0.69452578929880        0.24498683499571
H            2.70555253800953        2.36025157324927       -0.35540049281838
H            3.29622564005655        1.67493887131417        4.30125317049286
H            1.96744498544940        0.97329348628471        3.36120061941973
H            4.90096497856486        0.03909059481096        3.29818637413080
H            3.55024018706657       -0.80863216095404        4.03628671732582
H            3.61255548083253       -0.63293931412219        2.28943540131851
H            5.60432822532447        2.72619421781309        2.73421618417165
H            5.53254798561669        1.57878234156543        1.38858253263336
H            5.20335109793780        4.62509409511228        1.16193524047983
H            6.59403285099317        3.68347494665266        0.64849528990486
H            5.06253534320197        3.49374049301801       -0.19337034108817
H            1.69593067607455        3.67026388785991        3.09329392480828
H            3.26908257070684        4.48570751595222        3.06721376317845
H            1.29757682939376        4.22367660295963        0.72799329433908
H            1.66558692212387        5.69099258150261        1.62288755307876
H            2.89157891587374        4.97926302461273        0.58100827737132
