64
 energy: -70.879833095312 gnorm: 0.000944997336 xtb: 6.7.1 (edcfbbe)
C            3.35453099373324      -12.97828640166812       -0.49713679685506
C            2.18279191496882      -12.24843835725321       -1.14249638424052
C            0.86243430058434      -12.45050143685593       -0.39666796712451
C            0.85444371159982      -11.94466891325267        1.04774781652086
C            1.19100406172772      -10.46088041927686        1.22160148632501
C            0.30642938769848       -9.50045231605416        0.41725042410277
C           -1.18801168319968       -9.54970044745374        0.74804638542567
N           -1.69677868027515       -8.53524141523066        1.72548897698170
C           -1.68190973046760       -7.16245197440290        1.07148106178070
O           -2.40898629598126       -7.20656428168939       -0.08511609403420
C           -3.51859568719239       -6.28560687603879       -0.22552499874465
C           -3.02435021064295       -4.86296124380877       -0.49633840650646
C           -2.45921252253616       -4.63626945153279       -1.90157118617253
C           -1.09326934853880       -5.29227451114759       -2.09388855642996
C           -3.48202055177997       -5.10461950680834       -2.93671162458605
C           -3.88396009391424       -6.55898886752698       -2.72388557103510
C           -4.41461992957790       -6.88742999752844       -1.31959563783325
C           -5.92644429178491       -6.62164642417746       -1.12214143268422
C           -6.49155305256489       -7.52994905361339       -0.02575413649452
C           -6.32649953579845       -5.17920031936034       -0.82530550393350
C           -3.09278405090185       -8.87954843767852        2.05539928292558
C           -0.90142526805332       -8.50391952518151        2.96001813370585
H            3.59907353411542      -12.55769222050679        0.47512196836350
H            4.23627464433549      -12.89941519528885       -1.12770398547861
H            3.12136390655120      -14.03252832699605       -0.36877370972994
H            2.41497117412598      -11.18439532310396       -1.22131937157516
H            2.05209448887289      -12.62529546221151       -2.15881212364819
H            0.05847990315860      -11.97117536746197       -0.96091278481093
H            0.64140788905230      -13.51946747345058       -0.37282484651035
H           -0.12535999293799      -12.16409186942159        1.48150961016361
H            1.58177793899435      -12.51615028380553        1.62458995177962
H            1.15591846140162      -10.22579317701876        2.28674305725857
H            2.21899392667299      -10.29977278259488        0.89675021484283
H            0.69723668516498       -8.48754468506142        0.51753019498844
H            0.40966160729364       -9.76048490800630       -0.63612974295224
H           -1.76674325393116       -9.38556404271939       -0.16251365542009
H           -1.43228109371704      -10.53656785944891        1.14199017305735
H           -2.08287751167950       -6.44605245671471        1.80031490340548
H           -0.63170457402030       -6.91909773872089        0.86732170424932
H           -4.06718162901767       -6.28191414270850        0.72846207231982
H           -2.26446060301933       -4.60523311239797        0.24759810810489
H           -3.86606103374953       -4.18785316012888       -0.34835580764308
H           -2.32197354132303       -3.55624120732677       -2.02406011895743
H           -1.14589652554826       -6.36770973710132       -1.95542141193883
H           -0.72354978624143       -5.09085815220627       -3.09591299434988
H           -0.37708643923576       -4.88389850069324       -1.38292031069999
H           -4.36002538106596       -4.46097232412532       -2.88829851081547
H           -3.05947597102881       -5.00074703352623       -3.93723472571312
H           -3.01040434150348       -7.18634077138785       -2.90842674388828
H           -4.64083464539976       -6.83618708024765       -3.45878023350629
H           -4.30755457134352       -7.97573450003128       -1.21590981331412
H           -6.40699725048480       -6.91162049009564       -2.06233369239405
H           -6.06989381318224       -7.28514660752937        0.94857667796785
H           -7.56857657011579       -7.40245409495458        0.04054364022109
H           -6.29146241967800       -8.57847762075838       -0.24087457927929
H           -5.96095785865198       -4.49584591542869       -1.58423870203056
H           -7.41162989080516       -5.10722190082497       -0.81167463010368
H           -5.96313299210305       -4.85776795958786        0.14839162795850
H           -3.14071921029403       -9.87070971218126        2.50159882401452
H           -3.49784132829265       -8.15796202459381        2.76336695235282
H           -3.69654861279633       -8.86649499302484        1.14932339781222
H           -0.89150720017763       -9.49373579334619        3.41301528880948
H            0.12050650988411       -8.19840220217002        2.75003651791200
H           -1.33619606533706       -7.79954161353190        3.66797833812594
