16
 energy: -21.535732794277 gnorm: 0.000388852397 xtb: 6.7.1 (edcfbbe)
C            1.02659541750901       -0.26903124948712        0.04034911151276
C            0.20188727929521       -0.20561181338719        1.07400528487151
N           -1.21214767510572       -0.25282663215350        1.02983507597098
C           -1.88744243041098       -0.43501626383122       -0.11835011067710
C           -3.26434382753224       -0.47609011748971       -0.14220315429717
C           -3.97622904562605       -0.32858365931185        1.04216660278605
C           -3.26548393883608       -0.14370051426050        2.22157648889108
C           -1.88866009885135       -0.11060483144429        2.18440625879479
H            0.72813877972944       -0.36472643108067       -0.98916297406803
H            2.08793640420257       -0.22267729087296        0.21202407453609
H            0.58668756310753       -0.10303317375794        2.07850157792385
H           -1.31291503330933       -0.55167044031124       -1.02318300951653
H           -3.77317645897881       -0.62386840549958       -1.08152650644183
H           -5.05446330922855       -0.35828744338983        1.04582702737347
H           -3.77343248552776       -0.02587676799594        3.16555171553611
H           -1.30890114043688        0.03262503427355        3.08496253680396
