22
 energy: -24.564328670355 gnorm: 0.000211273847 xtb: 6.7.1 (edcfbbe)
C            1.02794718024121       -0.18218290013554       -0.00803281147025
C            0.34381621456583       -0.19832290969315        1.12195820640423
C           -1.15610639596891       -0.28394763322982        1.16155170721991
N           -1.62447718981127       -1.69770852350675        1.30628140152650
C           -1.11884085291293       -2.35740132818710        2.55422702417024
C           -1.59698311983474       -1.68076942872779        3.80544908825572
C           -2.48871713209958       -2.21579161593438        4.61978651214042
C           -3.09190858276673       -1.78501930256588        1.21957848190448
H            0.54852314070038       -0.21837229423491       -0.97336694906101
H            2.10095232940638       -0.11165577098641       -0.01656412789493
H            0.85145797964777       -0.13281007686319        2.07302204461755
H           -1.56124122410189        0.29253559663824        1.99394668690671
H           -1.57126288171196        0.10563629664844        0.22941649100677
H           -1.22331222163223       -2.21691025020054        0.51734204727945
H           -1.46062816006210       -3.39462973297895        2.54240596067320
H           -0.02710958098531       -2.34693389272763        2.51591688404581
H           -1.13881189766407       -0.73212937858424        4.04390973129026
H           -2.79012337347510       -1.72290815650278        5.52685712737163
H           -2.94293020432706       -3.17406506497902        4.42681204108147
H           -3.44512959461438       -1.33331832066230        0.29479206217199
H           -3.40931994476137       -2.82570981407255        1.24586691892690
H           -3.53560448783172       -1.26156549851375        2.06493347143355
