37
 energy: -53.774911489361 gnorm: 0.000293553973 xtb: 6.7.1 (edcfbbe)
C            0.45093474138236        0.08184325889694        0.05745701311371
N            0.48587482858538       -1.30476701561810       -0.32051742107229
C           -0.03414232141728       -1.82319285466918       -1.47241509486148
C            0.14606354020457       -3.16843243618423       -1.43558823801379
N            0.78217469396092       -3.46537837986487       -0.26624743260549
C            0.99959161379243       -2.31982789651732        0.39802540374271
S            1.74225823927393       -2.22723114512853        1.96720110326245
C            2.89757853053980       -0.87315320224816        1.72308162752652
C            3.64722780223415       -0.78964092421215        0.55970600608366
C            4.57252858774878        0.23250184353021        0.43335203403329
C            4.75576929819300        1.14218072583475        1.46269084637343
C            4.01084285700562        1.03600693739805        2.62596633622917
C            3.07197311568394        0.02743242107362        2.76121300880526
C            1.21797646649696       -4.79229888283667        0.12882132591708
C            2.36773757720825       -5.23246665768514       -0.74813354184330
C            2.15173031395271       -6.08300222357999       -1.82357052271100
C            3.20859168244629       -6.46230503156704       -2.63328572421467
C            4.48347818985976       -5.98624321670493       -2.37839937118726
C            4.70312828711277       -5.13436092764648       -1.30832085088807
C            3.64894002556385       -4.75754698625309       -0.49535352930783
H            0.31420335194812        0.16873975824712        1.13503981240085
H           -0.38114709426957        0.56678423601688       -0.44891490778094
H            1.37941634793041        0.58540812774480       -0.22085839115244
H           -0.49085625947369       -1.20639124716304       -2.21867880229412
H           -0.12670055310112       -3.92417657064081       -2.14265423475322
H            3.52072405658346       -1.51178703097122       -0.23453302140730
H            5.15821976127038        0.30724387518172       -0.46967364696586
H            5.48601975595759        1.92901387553099        1.36010876410554
H            4.15706159491224        1.73723843941843        3.43205843228162
H            2.48897150192103       -0.06778993694748        3.66395035803504
H            1.52247347665542       -4.75229565609937        1.17637519493595
H            0.37291775547592       -5.47656380499725        0.02820988061713
H            1.16069529299406       -6.46625469220887       -2.01902172576052
H            3.03544024425067       -7.13270152308225       -3.46051106662682
H            5.30676164187794       -6.28434646592835       -3.00836068260711
H            5.69708796919972       -4.76851895936312       -1.10204038025294
H            3.82606308604161       -4.10730983075354        0.34987143884046
