25
 energy: -46.183982875035 gnorm: 0.000711894519 xtb: 6.7.1 (edcfbbe)
C           -1.54108944975219        2.54200625897515        0.01249048562261
N           -1.13665216139921        1.15765066144897        0.01957209066659
C            0.16815265812752        0.71419006178663       -0.02020878917216
C            1.38356809730699        1.39290444317979       -0.05858792043928
C            2.52728316411576        0.62493386536148       -0.08575089229871
C            2.48059591523650       -0.77503952557992       -0.07430861292928
C            1.28608826019311       -1.46040204971515       -0.03706370261971
C            0.12371309052813       -0.69502357202428       -0.01192806507619
N           -1.20455927280624       -1.05131611516929        0.02690653899339
C           -1.92595244999243        0.07630336008343        0.05481705777550
C           -3.43705535132212        0.05683234609482        0.13315292850692
F           -3.95974200799594       -0.45947928937023       -0.98348522909127
F           -3.83490592007898       -0.70950931621240        1.15146342647284
F           -3.95473308428585        1.26439926148775        0.30505013381024
C           -1.69271463430220       -2.40684021493638        0.04867746508019
H           -2.03044540815360        2.80840367746809        0.94981564726732
H           -0.65852052706464        3.16197481150010       -0.11511510857872
H           -2.23266667889889        2.73913554406877       -0.80665878175678
H            1.43989021048689        2.46875679064285       -0.06323476417156
H            3.48810955523287        1.11361061141903       -0.11439631220235
H            3.40621820484740       -1.32780275701168       -0.09313998253792
H            1.25735526273999       -2.53710726278967       -0.02110824373253
H           -1.03404111259818       -3.02789360216573       -0.55645260382785
H           -1.70062303363933       -2.78873573969925        1.07180494681379
H           -2.70010332652548       -2.46798224884295       -0.35699171257515
