31
 energy: -45.016777682055 gnorm: 0.000474813739 xtb: 6.7.1 (edcfbbe)
C            0.66586344714529       -0.21666668722373        0.78530730595539
N            0.48728919879139        1.20963640895965        0.76779647494765
C            1.14126037279508        2.07672874990998       -0.05622717780508
C            0.68386355626160        3.32645644926390        0.22385121667782
N           -0.23211630570300        3.20713984006216        1.22750826672024
C           -0.34579570573071        1.91285401773801        1.52868255508165
C           -1.13371478999581        4.21807665094636        1.69134487318041
C           -2.57810524238042        3.78674226429348        1.28637177212061
O           -2.74136737295148        2.64623633627217        0.91632505160288
C           -3.62880196869612        4.78841056842890        1.39021487733394
C           -4.88931350489744        4.44462184377290        0.88562776552518
C           -5.92968494162304        5.34908719974470        0.94960593252638
C           -5.72937634212439        6.59387266196772        1.52029796873053
C           -4.48600381393869        6.95636247627554        2.04077182744086
C           -3.44179327536383        6.04983233294343        1.96854047854761
C           -4.30171398836905        8.30654865205307        2.65514806170600
H            0.42923198153917       -0.63405702882345       -0.19410567323434
H            0.00709670701589       -0.66145845281137        1.52734751204451
H            1.70004528765974       -0.46401996379388        1.02791080284826
H            1.86836178046176        1.75283622378623       -0.77250644241974
H            0.94622821713467        4.26998026014605       -0.20902552244490
H           -0.98976836735530        1.50378427889716        2.28188215619435
H           -1.09901459790578        4.29903432700044        2.78146055262929
H           -0.86987997673347        5.17492904255118        1.24230919530431
H           -5.02340782706566        3.46860208229680        0.44576695016145
H           -6.89854316259301        5.08436637684979        0.55626230542473
H           -6.54487866843133        7.29976663059998        1.57048838835762
H           -2.48542078516542        6.33019919131221        2.38351972626509
H           -4.43600423640821        9.08119666140168        1.90138233853850
H           -5.04577945656080        8.47324839683690        3.43158159505101
H           -3.31213621881421        8.41449220833999        3.09039886498355
