36
 energy: -48.678435424207 gnorm: 0.000192117039 xtb: 6.7.1 (edcfbbe)
C           -0.91166979832538        4.30463745617452       -0.79342080319606
O            0.14858647657265        3.47109535433862       -0.37208749252548
C            0.38697832538565        3.33027986265825        0.94948517726146
C           -0.34407876328170        3.94186343627362        1.96932021246354
C           -0.00594829381115        3.71730588320572        3.29403663199837
C            1.04692521949498        2.89050667122646        3.62304858790886
C            1.79162081764601        2.26959012698426        2.61196133379773
C            1.45507802063289        2.49663870962979        1.27961159183399
C            2.89767947044754        1.40282793063619        3.02309640804868
O            3.18954358833729        1.20159870526506        4.18467259928438
C            3.72313589736818        0.73160429326574        1.91340721917796
C            4.84336784124933       -0.12688605739846        2.49699701281017
N            4.50433137639656       -1.55677950031294        2.77011489052997
C            4.39773219387077       -2.31094386595833        1.50886203313306
C            5.59501727676797       -2.13329874736168        3.57992387745513
C            3.24500091989452       -1.67924743440245        3.52733869640013
H           -0.75876147793464        5.33844905445691       -0.47199563506165
H           -1.87524486205792        3.94151530128569       -0.42512523526761
H           -0.90184167864163        4.26045631615604       -1.88068728308396
H           -1.17200538935174        4.59261262760556        1.73944183036946
H           -0.57661065602981        4.19766233207262        4.07336814955042
H            1.31695560310234        2.71144452209691        4.65157174223379
H            1.99659699457674        2.05451425920793        0.45956063969659
H            3.06450463965194        0.17967081005466        1.24520352349055
H            4.17782009812517        1.53259642180012        1.32767142011087
H            5.70947433610602       -0.12049334672952        1.83379260170065
H            5.12409517663153        0.32984059699878        3.45190934018122
H            5.34756700048554       -2.29286914377864        0.97704326612854
H            4.13277197574705       -3.34664887283942        1.71452620995020
H            3.63144379925335       -1.88161147340620        0.86736614086632
H            5.63978645651016       -1.64130557144837        4.55001741977278
H            5.42410390792686       -3.19701862633101        3.73655301240842
H            6.55168873757067       -2.00425293534327        3.07647556410186
H            3.27244055161311       -1.02924868794424        4.40114933353697
H            2.39644278937202       -1.38758960969285        2.91276241886456
H            3.10400142869915       -2.70965679835793        3.84773756409719
