39
 energy: -55.119655895510 gnorm: 0.000170120645 xtb: 6.7.1 (edcfbbe)
C           -0.79393357575424       -1.22713009998772        0.50909613034959
O           -0.11563729023667       -1.54734004294095        1.72624295129481
C            0.50983686347915       -0.57245884919025        2.35424343441972
O            0.56625643539076        0.57315997014389        2.00571924221752
C            1.25320172662135       -1.18108529776087        3.56327426019556
N            1.41835062647926       -0.32794617747417        4.76312435571106
C            0.09724661871988       -0.07356480713045        5.45110869140543
C           -0.99098471206726        0.42717021919497        4.54211596987887
C           -1.08391927509978        1.78069860148628        4.31120468962003
C           -2.03311068175217        2.30888364117904        3.43125313424740
C           -2.90144016729587        1.47252054574421        2.78887412896173
C           -2.88315607213040        0.08542779951188        3.03649623390202
C           -1.92575676594173       -0.46141860758145        3.93824647459475
C           -1.98140020348351       -1.85172807069751        4.18741248408164
C           -2.90045427686515       -2.65077531176337        3.56627711567469
C           -3.81827022930514       -2.11105171987228        2.65406982725754
C           -3.81102005549814       -0.76929320424838        2.40217803571642
C            2.28893391067225       -1.04510658358421        5.71745807874160
C            2.07322102912584        0.94584674318160        4.40678992524703
H           -1.63122118315524       -1.91581263938620        0.43392677748150
H           -0.11295866010021       -1.36632231215978       -0.33100458988435
H           -1.14129565892480       -0.19401269049779        0.53274972120889
H            0.72985481086709       -2.10029120856822        3.83137716484981
H            2.24783499230999       -1.44830045805377        3.19137981230784
H           -0.20385250932728       -1.00401431402787        5.93243431401541
H            0.28791466946133        0.66605371432744        6.23140331100149
H           -0.41429189291769        2.46198283794552        4.81553967397557
H           -2.06483474930130        3.37321133422368        3.26292688604787
H           -3.62769830218314        1.86338955102827        2.09259952557647
H           -1.31400062684887       -2.31073433235931        4.90248189572507
H           -2.92664356770941       -3.70781484553650        3.78240279789358
H           -4.53267897709773       -2.75861254870840        2.17054704341115
H           -4.52412168384201       -0.33353137407380        1.71882308424954
H            3.28199955154235       -1.18470724817053        5.29349100572857
H            2.38372760263074       -0.46989816586522        6.63698588497251
H            1.87319070883926       -2.02211321207892        5.95835055365193
H            3.03643908680181        0.74804453897719        3.93999357728653
H            1.45635087132536        1.49732861150889        3.69989937349679
H            2.23212161256857        1.54275601327116        5.30237702340929
