21
 energy: -30.554840881958 gnorm: 0.000877241000 xtb: 6.7.1 (edcfbbe)
N            1.15196811845373        0.24770850851030        0.36359089704254
C            2.26579762483953        0.09241047400103        0.16700716465691
C            3.69270351126859       -0.00767726836441       -0.03281572280469
C            4.34430633467940        1.38244306942287        0.08912214185115
N            4.01584615882558        1.98262130743927        1.37408839599345
C            4.80761880170673        1.76218401438936        2.42703919448201
C            4.46073842149066        2.25810931962812        3.67415630857800
C            3.28960728589404        2.96196341544765        3.83553491859161
C            2.44851729557584        3.18513800069651        2.72339559092320
C            2.87965868313673        2.67263529414155        1.48964715555727
N            1.30319436466949        3.86791046112849        2.82355096537926
H            4.10186908934466       -0.69843799305187        0.70982951451904
H            3.88759317756831       -0.41506213451126       -1.02723046419704
H            5.42788013167595        1.28639342733408        0.00052382674964
H            3.98117055921638        2.03187377427753       -0.71061813765796
H            5.71225608693756        1.19770662610344        2.27005479141080
H            5.11488165143326        2.07955093096901        4.51179824099649
H            3.00658824621464        3.34502074148291        4.80308511975704
H            2.28581359591424        2.81911247281439        0.60077918497931
H            0.98091702995763        4.19547173424496        3.71837483109795
H            0.68383383119614        3.96279382389561        2.03716608209432
