56
 energy: -71.891494078753 gnorm: 0.000459884755 xtb: 6.7.1 (edcfbbe)
C            0.94899740389209       -0.81882269285170       -0.72575773762531
C            1.49534070068176        0.55256279627711       -0.34722616104924
C            1.44571118467924        1.56530328284285       -1.49350741822075
C            0.05177297501379        1.83010444911475       -2.06861661816196
C           -0.94888419223119        2.38659126409179       -1.05149808203407
C           -0.64133490432371        3.81985558407328       -0.60495618785267
N           -1.55128305094579        4.81725734992016       -1.23997629068294
C           -1.35128034178216        4.94329757090915       -2.70027020417674
C           -0.97674876518755        6.19238058828248       -2.98851160221202
N           -0.88709099900709        6.96785458876032       -1.88044534964475
C           -1.34113593403250        6.21063819860642       -0.73441949396827
C           -0.78616203541505        8.40558819543231       -1.84902582139440
C            0.60253937372370        8.90033987686022       -1.43302755313740
C            1.67709973224248        8.55740207974218       -2.45750583851026
P            1.22538349138164        9.08640946684706       -4.16444950408710
O            0.25588493051273        8.21445251460854       -4.83608535648463
O            0.66494609298712       10.58451497882117       -4.09625732833963
C            1.48330245203745       11.74910089210381       -4.00466780152117
C            1.63981107870677       12.23869469116705       -2.57443802718746
O            2.66964439057072        9.14904635282229       -4.85816038656762
C            2.76787460951575        8.82958805962567       -6.24837353296190
C            2.34982531569850        9.99613620523786       -7.12475835228328
H           -0.12244781213792       -0.78658183477442       -0.90787757991761
H            1.12971751841180       -1.52622174425445        0.07918157781684
H            1.44149494262858       -1.18995052438768       -1.62108133939576
H            0.95592031015804        0.93550517605013        0.52205806845867
H            2.53962222348635        0.44326814255838       -0.04913815860503
H            1.89201792649479        2.50173134051255       -1.14879526792445
H            2.07065574478068        1.19398254747112       -2.30739343294767
H            0.15219631315217        2.52149768278582       -2.90765031275833
H           -0.34691890360511        0.89580160117754       -2.46247526730802
H           -1.95480559779506        2.34429161546188       -1.47618643812376
H           -0.95159032495592        1.73540156908464       -0.17844836759431
H           -0.75735924050270        3.91601664615420        0.47669316123057
H            0.37947092780990        4.09217648159502       -0.87732208198513
H           -2.50860276645211        4.50138240384550       -1.05237619819507
H           -1.50617611844227        4.09481855282901       -3.32714899176810
H           -0.72844163489220        6.61271415113728       -3.94818227772932
H           -0.59013289622176        6.20723763609452        0.06470680677649
H           -2.27742779930167        6.62495186731109       -0.33293878086266
H           -1.00372520343056        8.78554722784887       -2.84798592731165
H           -1.53697055229773        8.79684207242478       -1.15388053895410
H            0.53732608581045        9.98257261052506       -1.32355943447081
H            0.87685515604735        8.48167867185232       -0.46064582455971
H            2.62777717987693        9.01263648379519       -2.18566289994555
H            1.82839382126190        7.47926880765840       -2.51735062519825
H            2.46376958751463       11.54428333359741       -4.44276661858586
H            0.97262071658899       12.50576936449676       -4.60662852523763
H            2.22524189570552       11.53793537426984       -1.98414678469585
H            2.15468320042736       13.19544463699276       -2.58167907423412
H            0.66481610364712       12.37471873182045       -2.11243223017022
H            3.81541283919346        8.56372069014712       -6.40939939911552
H            2.13149197523902        7.96415818029783       -6.45491703900012
H            2.97358614620134       10.86560431794542       -6.93146682129049
H            2.44763737462969        9.72000311502920       -8.17097079871102
H            1.31094735230471       10.24949677722487       -6.92096792967675
