47
 energy: -55.552873631175 gnorm: 0.000290265402 xtb: 6.7.1 (edcfbbe)
C            1.09106008895874        0.20795374458404       -0.07946549022782
C            0.14923855506208        1.23312468402020        0.57549100652525
C            0.35686854850998        2.66896660551596        0.08996266474887
C           -0.28627488930609        2.93946360415748       -1.26312570904854
P            0.46191023594651       -0.83803003281130       -1.46237005642212
C            1.08489643150385       -2.51165518017674       -1.01644782298778
C            0.44775626518066       -3.00975973203222        0.26724255384744
O           -0.70543554879923       -3.31416235521515        0.36790189420346
O            1.32114764602768       -3.02867086656305        1.26624187175797
C           -1.35759927978702       -1.06386294201595       -1.47895002305033
C           -2.27351170229367       -0.02825679611481       -2.13091232928370
C           -2.24186007647876       -0.01621561920097       -3.65907163487150
C           -2.70898518200980       -1.32261445751574       -4.29032313917406
C            1.27429867823014       -0.66498987304291       -3.10946775579258
C            1.51694555207407        0.69246875179700       -3.77116605533205
C            2.60816481411341        1.55316415983503       -3.13082286429548
C            3.95400596960804        0.84922346804959       -3.00160281608051
H            1.39062328125134       -0.52508466700364        0.67592736549095
H            2.00354048426680        0.69991862482243       -0.42224483400970
H           -0.89506575374447        0.94767199609106        0.43855559866808
H            0.34837556204645        1.21000606379542        1.64791620402043
H           -0.07380809981883        3.34935210056566        0.82506736820380
H            1.42708695694771        2.88145432007660        0.04729107352973
H           -1.36685162911370        3.01173715676098       -1.16404520099905
H            0.07185433760991        3.87795283998396       -1.67652901284196
H           -0.05059216509568        2.14193382550792       -1.96668258464198
H            0.83164199085046       -3.20306073702457       -1.82404592819778
H            2.16956520095404       -2.47099710239577       -0.89139204288204
H            0.93435885525473       -3.38991187995012        2.08215237363865
H           -1.51778652150839       -2.03988450724659       -1.94676965509583
H           -1.62724808151022       -1.17776477927639       -0.42324607676173
H           -3.29092808607404       -0.27051351223652       -1.81547880768130
H           -2.04772158768664        0.96970120159949       -1.75893444321891
H           -2.90300443042806        0.78498435885961       -3.99318816444211
H           -1.23887740181178        0.22389017039238       -4.01376954974756
H           -3.68629792622119       -1.60330350926017       -3.90666778920635
H           -2.79163766048568       -1.20325088745973       -5.36696926770337
H           -2.01653641029707       -2.14012931912508       -4.10066301616879
H            2.23649495512780       -1.17374450186004       -3.00252556607527
H            0.65061808366618       -1.27929015403580       -3.76862718760715
H            1.81834355438251        0.47743839154002       -4.79958265502560
H            0.59471333406103        1.27273450203431       -3.82583458623559
H            2.73457615162207        2.43131374677883       -3.76598564820898
H            2.28490965405576        1.91361384721936       -2.15439196081778
H            4.25071406609398        0.41055670937804       -3.95110385945807
H            4.71669398257207        1.56663747430248       -2.71205683407886
H            3.93533919649220        0.06632106389115       -2.24511960696055
