37
 energy: -50.159593331220 gnorm: 0.000514964584 xtb: 6.7.1 (edcfbbe)
C           -0.10458448932999       -0.18742730466627       -0.37746625269405
N            0.07859282225663       -1.60092608931263       -0.18015063728141
C            1.25501905738802       -2.22907556663381       -0.07529682006510
N            1.01682001473112       -3.53694749442884        0.07811573156038
C           -0.33317243007824       -3.73937815563536        0.06215637500323
C           -0.92105866237324       -2.52630449609253       -0.09329776018687
C            2.01215428711736       -4.58283171373192        0.09580667380882
C            2.61152024251937       -4.73168306804166       -1.27074098290162
N            2.49313265710678       -3.75742498245250       -2.19916768757929
N            3.09636466912785       -4.12722776777023       -3.26747329047145
N            3.61912813316562       -5.32076695624698       -3.07920054824906
C            3.34138556783950       -5.75906195660120       -1.83351165485057
C            4.33717578209185       -6.00026340501416       -4.12325052568007
C            3.55305488078679       -7.20083828398754       -4.66153335674598
C            2.16614106224402       -6.83348938051258       -5.19247432639477
C            2.21061556720618       -5.84549539579043       -6.35240936363646
C            2.57392253075781       -1.57546444393121       -0.13421321703718
H           -1.16405594935306        0.02120186980853       -0.50488635271383
H            0.43166377550785        0.14126126503561       -1.26789484133842
H            0.26138955041674        0.37263294096186        0.48443962556918
H           -0.76995630598285       -4.71127701356744        0.16303724258150
H           -1.95683264566548       -2.26247471693312       -0.14977214219062
H            2.79092490192024       -4.33748916670836        0.82687498781764
H            1.53537978754576       -5.51565646498110        0.40504913630178
H            3.66634359851762       -6.70330439310124       -1.45343492244085
H            4.50404359430811       -5.26616444307946       -4.91231842788324
H            5.30275192608892       -6.33153971298627       -3.73069117217448
H            4.14222922054961       -7.64541053886208       -5.46433444943337
H            3.44918168385383       -7.94856414801742       -3.87157231478541
H            1.68046791375168       -7.75357628444100       -5.52189856408340
H            1.55814443966764       -6.41612965679210       -4.38541934480616
H            2.89519866635633       -6.19246159805357       -7.12259755488752
H            1.22300480204602       -5.74909020767083       -6.79494803356864
H            2.52484070336523       -4.85998236187120       -6.01819995502562
H            3.30802447052347       -2.12793994417138        0.44646248578470
H            2.91930444730938       -1.55545237755978       -1.16955937267327
H            2.51960972668246       -0.55590658613500        0.23804161331663
