42
 energy: -56.303887174621 gnorm: 0.000264865325 xtb: 6.7.1 (edcfbbe)
C            1.55689439646438        1.29037948360269       -0.70575859687631
C            1.26493444407284        1.06894115248545       -1.97262630789139
C           -0.06926800635642        0.94827317693044       -2.65542260270529
N           -1.28077748643726        1.35999464394478       -1.88734258556589
C           -1.40302968055292        0.61335391601067       -0.61616173195228
C           -1.79254263023831        1.23756858467961        0.56604574928695
C           -1.92281387601001        0.50933213433646        1.72675125707576
C           -1.67675731133548       -0.86889817195570        1.75268600193856
C           -1.31533633596016       -1.49369836536531        0.55814617184203
C           -1.18975597269930       -0.75888998760689       -0.60540526256057
O           -1.81659041845681       -1.47478461848271        2.93541898420539
C           -1.56249897894047       -2.86190881608637        3.04510697009833
C           -2.49652046081238        1.04405765678584       -2.72655885458878
C           -3.78462673468547        1.47290819744158       -2.07700521154551
C           -4.36149010201545        2.69594612634480       -2.40616199895909
C           -5.54301544358537        3.09702296868350       -1.80810861475575
C           -6.15859986821161        2.28124486963043       -0.87354865674563
C           -5.59893680048270        1.05583525278536       -0.55267373185593
C           -4.42074271934422        0.64974249840564       -1.15390638807991
C           -1.20762727918249        2.82048045041250       -1.69264037310932
H            0.82794784878592        1.42789096782902        0.07379709433149
H            2.58459524196648        1.33158514976373       -0.39073221953362
H            2.07000709904907        0.92225957501189       -2.68109783904748
H           -0.03973071516555        1.55762813119930       -3.56420753152206
H           -0.18807266594806       -0.08847432132718       -2.98134914757154
H           -1.99521499305647        2.29318769232339        0.61385250272398
H           -2.21731930332944        0.99212917440307        2.64375839990163
H           -1.13114791051512       -2.55456793152432        0.52079575386020
H           -0.91715449343871       -1.29529054035811       -1.49987460834336
H           -2.25954713690668       -3.44377345600625        2.43648238620663
H           -0.53405324367323       -3.10162235559110        2.76301698174206
H           -1.71359801210333       -3.10310848424279        4.09512194708950
H           -2.37703896057022        1.55007674398432       -3.68716002942592
H           -2.50954293944005       -0.03444180509719       -2.89372727759201
H           -3.89774964034830        3.33186441424806       -3.14693094835886
H           -5.98353323069247        4.04445602539461       -2.07625426694403
H           -7.07895664539462        2.59436557223498       -0.40663003185219
H           -6.08385172714512        0.40927916840790        0.16154729315611
H           -4.00272231614914       -0.31581612623673       -0.91123461610280
H           -2.13516045213957        3.19450556756366       -1.26634265859070
H           -0.36931744637248        3.06978173580491       -1.04706887003490
H           -1.05845709267095        3.30158394920561       -2.65803653132085
