28
 energy: -32.904128689720 gnorm: 0.000839450797 xtb: 6.7.1 (edcfbbe)
C            0.38374751793842        1.39941456664695       -0.40331756066231
O            0.36165625671165        0.19769523475835        0.34268809013018
C            1.03008228998419        0.29490753330633        1.57640870110556
C            0.76051116768108       -0.95198482934011        2.42354135209857
N            1.01698625246970       -2.25377728997555        1.74811873718408
C            2.32621750620443       -2.23933475617931        1.07362342530610
C           -0.06599720506524       -2.59317890576551        0.75610394495270
C           -0.79982203064865       -3.80888456865682        1.31062174619467
C            0.29547903809427       -4.52371194216704        2.09365281274561
C            0.98852133427428       -3.35206807801902        2.77152667815056
H           -0.13689568534783        1.18869077538094       -1.33345462847053
H            1.40994981669736        1.71014425792144       -0.61759819251618
H           -0.12988980824102        2.20170684888331        0.13241756582486
H            2.10854397526063        0.44494156975811        1.41722125893735
H            0.66188398304313        1.15999825572126        2.14807150796706
H            1.39413642514313       -0.89310374587198        3.31136295146057
H           -0.28599415054486       -0.95089500707676        2.73443293142452
H            2.29475064380227       -1.56161510601627        0.22333406154936
H            3.10268432937813       -1.91575841975235        1.76537179818689
H            2.56402425328144       -3.23989610038743        0.71757481509403
H            0.40227637759865       -2.83719522455535       -0.19582064356836
H           -0.70700101342351       -1.72915357855193        0.60057038451074
H           -1.60974540253879       -3.51288529369227        1.97696940599071
H           -1.21938255900629       -4.41884747386248        0.51539801978458
H           -0.09473548029080       -5.23402812362786        2.81743395597151
H            0.97052549420518       -5.05433454964264        1.42251230581376
H            0.39076818516247       -3.02375379579716        3.62281326699676
H            1.99740848817581       -3.57338225343873        3.11520130783688
