65
 energy: -90.911162418769 gnorm: 0.000339076564 xtb: 6.7.1 (edcfbbe)
C           -0.91168528903075       -0.01126292175450       -0.02593557703962
C            0.31106876893992       -0.58086178648616        0.57040851749042
N            1.26910542136712        0.05795720534008        1.24994234735069
C            1.34690128894954        1.47270984109376        1.54236347388693
C            2.67191046941516        2.09804443892485        1.09681104381532
C            3.07745426720789        1.80374941161910       -0.34841008565723
C            2.07830821888473        2.17348486287914       -1.44984203334369
C            1.70357847629454        3.67028253817625       -1.61207525779639
C            2.86313207361758        4.54045151654039       -1.16829999097255
C            4.03474058755339        4.50898274141258       -1.92197064000736
C            5.13840166424122        5.25198423232267       -1.54824795417299
C            5.09418503459698        6.03747865836011       -0.40787122364743
C            3.94032890219983        6.06831949561236        0.35330830704029
C            2.83302075739922        5.32332623499524       -0.02140407370381
C            1.31966615265711        3.95843754844907       -3.06690854532793
C            1.62866975600736        5.17578974114167       -3.66516683659201
C            1.23846065008880        5.44556430533706       -4.96516764546425
C            0.51618995146492        4.51109920781786       -5.68592030431974
C            0.17877902814150        3.30864912611186       -5.09073202120350
C            0.57085886848533        3.03775499571307       -3.79158733152297
C            0.38362278870908        3.97545528906472       -0.88834409545509
O           -0.29942964483163        3.11415375334004       -0.35664856023932
N           -0.01202215381656        5.25431875930695       -0.93923098286410
C            2.19873796154455       -0.85772873949504        1.65486381629708
C            1.79418277215794       -2.07366644766741        1.21033229503560
N            0.62251740147668       -1.88565938162420        0.53654958244000
C           -0.18993133368914       -2.93153166287140       -0.04647907808322
C           -1.51920283581999       -3.05787427366083        0.66400449306149
C           -2.70487178645730       -3.08664857893928       -0.05641890746961
C           -3.91659081371095       -3.21182676305153        0.60128267215388
C           -3.95117426615821       -3.29842310248263        1.98246964885553
C           -2.77041921231869       -3.26825658179110        2.70598648601858
C           -1.55806038910509       -3.15170548779088        2.04998020987309
H           -0.84494440762829        1.06756023347132       -0.14895385577386
H           -1.77147569905512       -0.22871483154156        0.60932286226285
H           -1.10241541766152       -0.46490224111056       -0.99673233411925
H            0.52299620017844        1.98110196968350        1.04243499559782
H            1.23274826573439        1.60599133558244        2.62200798429844
H            2.57776849086532        3.17426798245418        1.23540244959699
H            3.48246085150598        1.75943649014861        1.74543186473380
H            4.01947025544445        2.32267143150603       -0.53189698568413
H            3.28055931776067        0.73303323759784       -0.45019677674035
H            2.51974293700356        1.83876508887614       -2.39069562477985
H            1.15547298995131        1.61351655475818       -1.29926823195255
H            4.07424234830522        3.90431066306671       -2.81620268114093
H            6.03451850194879        5.21857969650102       -2.14892127362420
H            5.95347500468736        6.62082326719266       -0.11594665144646
H            3.89526344838941        6.67478970140902        1.24527309335708
H            1.94416867154363        5.36557311045273        0.59202128296268
H            2.19729752955174        5.91975782689276       -3.12538749440275
H            1.49993291263611        6.39218332185131       -5.41291192037684
H            0.21291831759300        4.72114620877368       -6.69965580933424
H           -0.39675068603653        2.57678930856107       -5.63721565125993
H            0.27932438640923        2.10061591777547       -3.34336424947180
H            0.51184685881387        5.94821363695725       -1.44403362040614
H           -0.91438468166203        5.50382298419999       -0.56770507799076
H            3.06202455854069       -0.58471614457279        2.22442784593258
H            2.24656605445384       -3.03758838505938        1.31922722745160
H           -0.34991767255660       -2.71899862654495       -1.10754759421224
H            0.37034735499933       -3.86675661686348        0.03422965521787
H           -2.68280264142270       -3.02183366774770       -1.13438408010639
H           -4.83307208369094       -3.23989139910726        0.03302379649696
H           -4.89558639834598       -3.39312460340545        2.49471075129860
H           -2.79204311050774       -3.34134961749416        3.78213508911451
H           -0.63885599464279       -3.13862200881062        2.61906926669891
