36
 energy: -41.574332337416 gnorm: 0.000384052286 xtb: 6.7.1 (edcfbbe)
C            1.64760793037737        0.62212239593925       -0.06047946961450
C            0.59969089791607        0.39193475207255       -1.14671455296346
C            1.01163140974135       -0.64321990963056       -2.20262732903137
N            0.51654613663562       -2.03887776778288       -2.01312637562372
C           -0.97914369826233       -2.10520421100443       -2.18021592671255
C           -1.48477993033060       -1.69294318150781       -3.53864481418122
C           -1.80318196026220       -0.36311118062768       -3.79907214207674
C           -2.28436233474754        0.01276327776689       -5.04103660060618
C           -2.46302216675425       -0.93612655424531       -6.03362093394553
C           -2.17247900970998       -2.26542188373272       -5.77579280181788
C           -1.68812514098318       -2.64248838528413       -4.53573871378471
C            1.13652622099271       -2.92215187221662       -3.05097018248536
C            2.63494907622393       -3.15477523335691       -2.93233911440321
C            0.84751454789995       -2.54078838536725       -0.66918068273977
H            1.78906733606619       -0.24488227876206        0.57830112705310
H            1.33566988559573        1.44932778730045        0.57109777998466
H            2.60470157752867        0.88715548360487       -0.50325432002808
H           -0.35450597886816        0.13957777354511       -0.68447806266621
H            0.45256577004866        1.33893459725198       -1.66868111926775
H            0.65860968976731       -0.32744671466880       -3.18609731114008
H            2.10075977421840       -0.68089418356030       -2.22937436054287
H           -1.27976826116605       -3.13502729669931       -1.97551890687322
H           -1.42666267182013       -1.46392447024319       -1.41983816632117
H           -1.69674201581976        0.38168608657371       -3.02397575046859
H           -2.52881846964458        1.04642048745774       -5.22859030802137
H           -2.84205722924629       -0.64325944690070       -6.99969626210757
H           -2.33030643828590       -3.01263476018053       -6.53738630562533
H           -1.48715848592077       -3.68585867871300       -4.34067089301911
H            0.63266555354913       -3.88885036905864       -2.99020232125081
H            0.91318785400901       -2.48294897620000       -4.02505763087838
H            2.90309921130629       -3.67709038576471       -2.01873808284194
H            2.93286851367265       -3.78655372633780       -3.76573518338259
H            3.21382870835978       -2.23869471545533       -3.00396378768250
H            1.90484562929876       -2.39316036147305       -0.46514633422617
H            0.26672918251441       -2.01431369818100        0.08424431035717
H            0.61750888610367       -3.60306401455452       -0.60238847106672
