14
 energy: -25.963892308044 gnorm: 0.000845680834 xtb: 6.7.1 (edcfbbe)
N            1.59648226189773       -1.34276109590997        0.04699861076088
N            2.50697761495862       -0.70900751057042        0.05551327461808
N            3.58013030303038       -0.18102618802308       -0.07887696264408
C            4.09992400233415        0.92576318186420        0.40975803784862
N            3.55215827762415        1.78909328350600        1.21558021685241
N            4.50505835242851        2.79789701797485        1.43642283055631
C            5.68793266921720        2.33524831663583        0.62775994208111
N            5.42308220754651        1.26549906631189        0.04620551103622
C            4.00718910426349        4.14114095737379        1.06037545952130
H            4.73642506968324        2.81889192378666        2.44267343454277
H            6.59451376584194        2.90700934335773        0.58528811588732
H            3.08710231626710        4.34188303426525        1.60755571998063
H            4.75389256930465        4.89533607090760        1.29901021781785
H            3.79278148560247        4.15630259851954       -0.00765440885930
