38
 energy: -60.573305725621 gnorm: 0.000618521500 xtb: 6.7.1 (edcfbbe)
C            1.00217003985723       -0.40279893203685        0.15819123842189
O            0.53818390798664       -0.66500255595027        1.47710894550126
C            1.48875546488778       -0.81621688871037        2.40741517337591
O            2.66930203271493       -0.73177209470467        2.18018704067186
C            0.94473141311915       -1.09788864390824        3.75360953482147
C           -0.36040527001244       -1.19952514478501        4.02155110881794
C           -0.95039411215421       -1.48782596777167        5.31799332030762
C           -2.33241975902552       -1.67665793964622        5.40456798475011
C           -2.93975879605375       -1.96515768199061        6.61094647644270
C           -2.17760834340156       -2.07892642520891        7.76592924920391
C           -0.80236010690399       -1.88135675004336        7.69577949448162
C           -0.19674014355743       -1.59180944142587        6.49102675866375
C           -2.82539943288786       -2.38756383302866        9.09737916406528
N           -2.83568551258115       -1.19381590115917        9.91896307071609
C           -3.58376141645053       -0.07713298559819        9.66443489367062
C           -3.26657969947286        0.85180091516876       10.60258159230296
N           -2.31998412429014        0.29207737155356       11.41985133297736
C           -2.07988678931061       -0.95124182093387       10.97214475543551
C           -1.63392923368189        0.85279546004268       12.58582520233382
O           -0.83500792313141        0.16187818498758       13.12611011336842
C           -2.04699795890040        2.23379078439688       12.92524503378813
H            0.11531418679040       -0.26689935697145       -0.45465746443271
H            1.59675330659747       -1.24223629192941       -0.20700945413136
H            1.62134677398159        0.49604520747402        0.14586080268379
H            1.71383634379822       -1.22446315908518        4.50079852037043
H           -1.06161168840405       -1.07147246599293        3.20777136086979
H           -2.93415128576214       -1.60300159041209        4.51160275512964
H           -4.00810066934982       -2.12091146210915        6.64855848641578
H           -0.19935298511416       -1.96774472928419        8.58878701550866
H            0.87053988727723       -1.44731397385605        6.46097233086638
H           -3.85583075507757       -2.71865578108240        8.94922612022768
H           -2.27104342332044       -3.16467100862285        9.62733559832252
H           -4.27338306593275       -0.02561795594765        8.84620578150536
H           -3.64526913537562        1.84408851565528       10.73414154292600
H           -1.37916739316381       -1.62418732652084       11.43103022389431
H           -1.82241456666679        2.91358248472640       12.10435705950463
H           -3.11546500281248        2.27894152311393       13.12999460085185
H           -1.50183476418851        2.55570766159527       13.80936323535771
