59
 energy: -61.100027580549 gnorm: 0.000192942173 xtb: 6.7.1 (edcfbbe)
C           -0.80507397128153       -0.55978544198006       -0.67953712614390
C           -0.98975568948430       -0.23175462690935        0.79714113711971
C            0.13884239738721        0.62633552680153        1.37193730150026
C            0.27715365507557        2.01558746543139        0.74456729741572
C           -0.91821749992491        2.94453663496365        0.96554899521652
C           -1.14452798484699        3.34175597076547        2.43372077874127
P           -0.49922478719990        4.99761063027550        2.86926385530360
C           -1.22123082039039        6.22872314140443        1.71692951335147
C           -2.68317383255885        6.02024791205096        1.31487931230771
C           -3.68660443532907        6.13373821687493        2.46230370271193
C           -3.81815808299850        7.54950873301215        3.01154659497409
C           -0.93318120295742        5.48997125396652        4.58962508930896
C           -1.48507092940907        4.38241306145244        5.49025682534418
C           -0.41516499905515        3.40827318894313        5.98586057527207
C            0.41211908371413        3.97614726939417        7.13347191242875
C            1.30321479743601        5.23212944646134        2.60397629933836
C            2.26106800897612        4.70163015072349        3.67411501930470
C            2.61932621995201        3.22192703541892        3.52409647646688
C            3.64591259029543        2.97732187464541        2.42402794364772
H           -0.89147530069384        0.32833382971341       -1.30084209425939
H           -1.56424751834356       -1.26739958377350       -1.00158045071470
H            0.17095470672692       -1.00774870786625       -0.84992974236146
H           -1.95353036361062        0.25965583340586        0.94597567528828
H           -1.01662563446598       -1.16570890071569        1.36156046422037
H           -0.00554438420434        0.71226974490077        2.45241467707951
H            1.08276508412235        0.09964332144844        1.21870912369043
H            1.17954577738404        2.48431626772950        1.13660964141122
H            0.41680308162166        1.89891876298734       -0.33031836462814
H           -0.77852426446852        3.83653971504066        0.34970688814807
H           -1.81531314001419        2.44333895320453        0.60142555934752
H           -2.21516570408664        3.38629631521755        2.65318727908002
H           -0.70896884975844        2.60212817074893        3.10633710563609
H           -1.08953524210286        7.20804113323447        2.18601553091238
H           -0.59646848527648        6.21693744123892        0.81784318284288
H           -2.92848160087435        6.77438574520648        0.56398284978694
H           -2.79449432180044        5.04499297432560        0.83850957048363
H           -4.66242349076400        5.82222865029905        2.08603099081489
H           -3.41353698915462        5.44213438173935        3.26451038147418
H           -4.13424916161454        8.22980110113840        2.22507307497409
H           -4.56532365207017        7.57639084807813        3.79998161253688
H           -2.88208335174534        7.92147808591217        3.42336749976452
H           -0.03635469804377        5.92618832705676        5.03644682073111
H           -1.67067488696519        6.29048022875208        4.50094150355272
H           -1.95183214777541        4.85540004632490        6.35650884752294
H           -2.26991146982511        3.83487462525932        4.96488272582400
H           -0.90488506318010        2.49751287098716        6.33327233800464
H            0.24457874927929        3.13584290279416        5.15816135098517
H           -0.22194065597211        4.17626277348031        7.99319587751138
H            1.17428027125363        3.26295761444919        7.43491406500023
H            0.90927300377500        4.90379355684287        6.85802473502321
H            1.54739562482099        4.81209754561696        1.62519774127068
H            1.41360083058679        6.32057189026621        2.52920290255842
H            3.18430460629798        5.28136080579735        3.61325744677199
H            1.84270270851749        4.87510723931741        4.66607231686319
H            3.03744195676596        2.87043285014595        4.46855038149635
H            1.71809016875699        2.63749294991510        3.32768917902282
H            4.57972592090393        3.48011739407408        2.66186747446678
H            3.84889811919215        1.91412197098088        2.32987187508141
H            3.30381724937274        3.34269288101024        1.45794045918413
