57
 energy: -83.874704283692 gnorm: 0.000285147624 xtb: 6.7.1 (edcfbbe)
C            0.15928704262949       -1.70829768969151       -0.20221572194970
C           -0.07236376765023       -1.23295442085617       -1.62620053610567
O            0.76698828375825       -1.94058935203516       -2.55858655449063
C            2.00534597823671       -1.50598779506617       -2.71015430892799
O            2.49565078692442       -0.54681774437701       -2.18261932017697
C            2.74142327537887       -2.35961227458109       -3.71739716512249
C            2.07121712202065       -2.76522384941999       -4.85165202716181
N            2.67301083804210       -3.48303093754395       -5.80616069762566
C            3.96645056196565       -3.81434825249250       -5.67558357530678
C            4.68974045169438       -3.44747365414975       -4.56949674432441
C            4.09568070637910       -2.70371320944341       -3.54211958812997
C            4.83231788417192       -2.31298964713644       -2.30744934097022
C            4.10980002119906       -2.79825159768005       -1.06041961199346
C            3.35310704835472       -3.96342508497971       -1.06423918964667
C            2.73879492360126       -4.40114405534530        0.09698384477414
C            2.87841759474579       -3.68284724043414        1.27136662268183
C            3.63805935398512       -2.52432604227633        1.28117637395248
C            4.24913496358526       -2.08281972139956        0.12127588680365
C            6.28158969272364       -2.75726185040113       -2.31153055618837
C            7.26767074680735       -1.87927945474574       -2.74394020184253
C            8.59507802251266       -2.27097095149059       -2.76131358530100
C            8.94867376740446       -3.54336827077452       -2.34479032452353
C            7.97039559338269       -4.42237532310702       -1.91129316831861
C            6.64225174258726       -4.03313045537732       -1.89614341146408
C            1.96657063670483       -3.87032981141536       -7.02066817319534
C            2.63984712167360       -3.26599055938115       -8.23325856824703
C            3.19836769286955       -4.07723121705349       -9.21092775421027
C            3.81321607539681       -3.51059074483009      -10.31474296415276
C            3.88294165778976       -2.13371011328292      -10.43976025699646
C            3.33223875266976       -1.32070614777634       -9.46229526930855
C            2.71128059723220       -1.88372389643016       -8.36208487581794
H            0.00312520664874       -2.78158055611542       -0.12936100986901
H           -0.53818033576757       -1.20396727690074        0.45932440803584
H            1.17352307415425       -1.47804135349426        0.11475321824499
H           -1.09006615631648       -1.44793443096484       -1.95558271454117
H            0.13508263282590       -0.16257790039396       -1.71237453406226
H            1.02984088378325       -2.51427124765535       -4.99162146668509
H            4.40681135657624       -4.38091413480223       -6.48286034917411
H            5.72580278749821       -3.73719361983739       -4.48670492283458
H            4.80875450817929       -1.21525049358091       -2.26911494254428
H            3.24522670950312       -4.54301492259433       -1.97192087142429
H            2.15570576479780       -5.30962725061703        0.08175286441694
H            2.39977357324089       -4.02537301240045        2.17540925503960
H            3.75343727799358       -1.96073038513909        2.19399236563575
H            4.83669256657959       -1.17766441189183        0.13198080197049
H            6.99741779234815       -0.88298598498702       -3.06435837819365
H            9.35328269126219       -1.57980371060311       -3.09581540843855
H            9.98382549269563       -3.84714811952274       -2.35267466746886
H            8.24087099286912       -5.41296465508160       -1.57925210920004
H            5.88478917514255       -4.71996505410181       -1.54807979662929
H            1.96841881615343       -4.96103855144726       -7.09771874862857
H            0.93197672119414       -3.52850334894615       -6.94749989187937
H            3.14053931727816       -5.15231860091320       -9.12050301931747
H            4.23667256678408       -4.14700816262484      -11.07572249159256
H            4.36250512737653       -1.69345728979248      -11.29961142709441
H            3.38153681407772       -0.24744053233533       -9.55844878856541
H            2.27596947432535       -1.24632362828867       -7.60500661192027
