39
 energy: -44.732849545113 gnorm: 0.000269671961 xtb: 6.7.1 (edcfbbe)
C            0.99164193665631       -0.20548975945466       -0.10561957090412
N            0.59856640358974       -0.79242523052792        1.18736773542644
C            0.78816547891634        0.18503913169362        2.31114612008130
C            0.34318674070643        1.63546352777213        2.10393934201259
C           -1.15725459908521        1.94190511020171        2.06595748398028
C           -1.95518641533829        1.44461823788574        3.27282975776910
C           -1.54336956091056        2.11327939613386        4.59162238813885
C           -1.74910068338666        3.60347638400774        4.54299862890761
C           -0.67605638596574        4.47706254322122        4.43159377862438
C           -0.88194505071668        5.84441761579619        4.36373800348834
C           -2.16726829573788        6.35491199875443        4.40538875945393
C           -3.24455210895567        5.49247753526449        4.52194920708334
C           -3.03550371792855        4.12729054072582        4.58967862930055
C           -0.79708110008846       -1.26004536528632        1.10828114056039
C            1.45905507655087       -1.96253627321066        1.45723602272501
H            0.29084764898622        0.57216089135416       -0.39980662443899
H            0.99563887601451       -0.97549294125087       -0.87540256691710
H            1.99047557530651        0.22170864190203       -0.03593766863807
H            0.28468124882467       -0.22581439087564        3.18741982969656
H            1.86023736933207        0.20915586516551        2.51967142762804
H            0.76198993960009        2.17719278653067        2.95361270704025
H            0.81334865724388        2.05669882432066        1.21533226045828
H           -1.25344149452548        3.02899828175992        2.03231585025880
H           -1.61209512201022        1.56616259713267        1.14615300402644
H           -3.00628243926006        1.67193323805057        3.08887813758167
H           -1.87529702435760        0.36022316275713        3.37972597048296
H           -2.15691569894564        1.69244515360285        5.39092165032404
H           -0.50051702274475        1.88880375056942        4.82357087812763
H            0.33451602521438        4.09071830084069        4.41386441220408
H           -0.03643630584556        6.51096282040118        4.28214601165370
H           -2.32893862255079        7.42061291182479        4.35510082778678
H           -4.24926232875224        5.88481247362930        4.56548937591684
H           -3.87942431862058        3.45985563193720        4.69170732083259
H           -0.90942107424663       -1.95557298105561        0.27803047580510
H           -1.07469843971013       -1.77169654270578        2.02789091565470
H           -1.47219420882780       -0.42316960336958        0.95569427133090
H            1.28245860657250       -2.73777930325657        0.71352653725161
H            2.50968043157514       -1.68004991589657        1.41958005249784
H            1.24221200343167       -2.37138504634462        2.44272751678487
