16
 energy: -20.216277232478 gnorm: 0.000533193898 xtb: 6.7.1 (edcfbbe)
C           -0.72568190315289       -1.23961545900405       -0.25309723152194
C            0.70766143636193       -1.14782881489223        0.28163099555143
O            1.32786840873868        0.02680435482293       -0.16865775891901
C            0.65981732177202        1.17622986649050        0.27822904543070
C           -0.77605581351008        1.20739044581507       -0.25668476358131
N           -1.47305299795675       -0.03032049239960        0.19530814603755
H           -0.70924802259661       -1.24865146205907       -1.34449445133601
H           -1.21904205130411       -2.14045785203039        0.11151186205102
H            0.70373152214962       -1.18957379666079        1.38157999860731
H            1.30399800689140       -1.97761756920151       -0.09974675344607
H            0.65409083478692        1.22098961439551        1.37804998034549
H            1.22153169312900        2.02873855079312       -0.10559908429802
H           -1.30609685517862        2.08823167883562        0.10531558159396
H           -0.75994531056206        1.21389537953298       -1.34810641557312
H           -2.43620014209290       -0.05067182985278       -0.15923249834582
H           -1.51261612747555       -0.02962261458530        1.22406334740385
