57
 energy: -63.748224500789 gnorm: 0.000376290565 xtb: 6.7.1 (edcfbbe)
C            1.17339498952097       -0.23376417056334       -0.43209275951386
C            0.89117130317380       -1.21417540994727        0.70006872845185
C            1.36585675724237       -0.71270193212922        2.06489142991535
C            0.70567261590531        0.58268199829289        2.54207396598988
C           -0.81941843845736        0.52885424066747        2.64846345149150
C           -1.36166054776421       -0.54990981615263        3.58787219655165
C           -0.91617400225171       -0.41808903976339        5.04569822558525
C           -1.30284831883414        0.89892929820742        5.72219364056336
C           -2.79861059604974        1.22393845601112        5.69569139817744
C           -3.69804299995900        0.15540949259655        6.32211610027976
C           -3.47490179531607       -0.07292874814252        7.81681497734219
C           -3.91375567959792        1.10604841593152        8.69768742008137
N           -5.34777666544695        1.30522270696200        8.60021716167999
C           -6.17406715100966        0.53784848520094        9.32357651399899
C           -7.53861646321662        0.63244790756952        9.19328974239085
C           -8.09916108322248        1.53906442711282        8.28716375068234
C           -7.20781582475902        2.32374718175397        7.54916666354334
C           -5.85137219256083        2.18514589425981        7.72484549617362
C           -9.56416439992955        1.63190487914995        8.07207803390752
C           -9.97357663486313        0.87137843206941        6.79222808952121
C           -9.73642145198040       -0.62771050473312        6.90538723025714
H            0.58659175447989        0.67507826370992       -0.32236304257999
H            0.92206411550283       -0.68332848916836       -1.38995651341212
H            2.22719597093163        0.03587599110659       -0.44729201961112
H           -0.17769295243118       -1.43356629509304        0.73381865637717
H            1.40700017901706       -2.15379125211387        0.48861303580669
H            1.19989723849980       -1.49955702868024        2.80404709758408
H            2.44376236294486       -0.54080821910851        2.01513249045080
H            1.12901954698208        0.84427142208696        3.51456395923350
H            0.96823512019151        1.38912837442898        1.85524086086909
H           -1.17492336872096        1.50943728630302        2.97414123511420
H           -1.23931982002173        0.35420998497002        1.65643888235642
H           -2.45334841459371       -0.53500151770812        3.53585441229828
H           -1.04247725146784       -1.52829546885683        3.22601303892974
H           -1.33057443660720       -1.25661021172904        5.61103322662008
H            0.16924653037278       -0.51222493166266        5.09527753860642
H           -0.94790061539891        0.87402989922748        6.75556503804478
H           -0.77698892330605        1.71781697948117        5.22966702155799
H           -2.94554723444490        2.18599590834171        6.19466425250981
H           -3.11070043609332        1.35564239852793        4.65924869257866
H           -4.74553075246119        0.41762168929878        6.13985749069412
H           -3.51964065136135       -0.78980463770756        5.81044519015146
H           -4.01775383681734       -0.96804141666278        8.12872298949992
H           -2.41625357596363       -0.24796707742903        8.00295482970628
H           -3.65582967749505        0.90202644461448        9.73866576600862
H           -3.40424636909076        2.01723524849227        8.38371731327919
H           -5.71986951689125       -0.15667680415733       10.01478414750790
H           -8.17320821755656        0.00176363034008        9.79536024967712
H           -7.57814554579860        3.04563803548629        6.83838840712817
H           -5.14834754803727        2.78718799950467        7.16916900396021
H          -10.10107385119723        1.20907413935611        8.92110038011297
H           -9.85242527971877        2.67772111659734        7.95559241324400
H          -11.03384561912813        1.05640261744320        6.62159074758493
H           -9.42199498629036        1.27103473887067        5.93945394295517
H          -10.26648702225952       -1.03795091319669        7.76123074696204
H          -10.10288965141059       -1.12674249691642        6.01284020526080
H           -8.67726868496742       -0.85667760237059        7.00944685593797
