72
 energy: -105.369115509878 gnorm: 0.000437528899 xtb: 6.7.1 (edcfbbe)
O            4.40156889077000        2.04527682970071        1.29338066626537
C            4.46896608830325        0.83396528116361        1.27290777639077
C            4.86367191771967        0.14966750321168       -0.08594575000476
N            5.44944708823662        1.23238380432704       -0.86661807842693
C            6.76416823373063        1.46638315652749       -1.14984669807534
C            6.85399846018657        2.72048252356656       -1.66642400307721
N            5.59673629519946        3.24899738611810       -1.67668492287886
C            4.76845991943523        2.33463154536391       -1.17777359797913
C            5.16171350269832        4.56148877453224       -2.15259253328788
C            4.16754457017333        4.25586658553852       -3.32839816997989
O            3.07162767795820        3.83283286880777       -3.05312861114397
C            4.62524857670307        4.49307589919447       -4.70307746121737
C            3.82784474958783        5.26467182861471       -5.54939966621648
C            4.22584821996985        5.51362877619635       -6.84540909486817
C            5.40559585881127        4.96444039547495       -7.34980256407895
C            6.16677887613261        4.14357685264545       -6.51581772169282
C            5.79249366380254        3.91820421010066       -5.20834981566618
C            5.83186685580929        5.23543680495029       -8.72699632478848
C            5.69463794818862        6.51279873123777       -9.26855996751819
C            6.10461679985288        6.77337939017126      -10.56238752790673
C            6.64662255935947        5.76180552755097      -11.33827153659830
C            6.78177560135477        4.48773834931258      -10.81170297303728
C            6.38334667058162        4.22593963471807       -9.51437388564285
C            4.36920772069147        5.24324324989503       -1.03076614192864
C            6.34371869448716        5.43727578087582       -2.54304586205954
C            5.89066924421358       -0.96093156276482        0.10462559261874
C            3.60868906504355       -0.34501311085678       -0.81722233561481
C            4.26351689040938        0.01758755647484        2.46474538269922
C            4.56444340708008        0.63185834875350        3.68938440628008
C            4.43010249259541       -0.04968121104020        4.87604747242173
C            3.96404430580380       -1.36676015651664        4.89392310960824
C            3.62182342382175       -1.96262329113202        3.67677554597817
C            3.77043208523302       -1.29090014500741        2.48375664741583
C            3.83058704688000       -2.10190390224523        6.15356755470338
C            3.37652489686355       -1.46132364428833        7.30637087785061
C            3.25275868581864       -2.15898908957802        8.49284676525100
C            3.59271221436161       -3.50079104683608        8.55099150181596
C            4.05012128370496       -4.14548138002465        7.41301007697570
C            4.16217602710827       -3.45528515383925        6.22130459991898
H            7.54025218912788        0.75033868868026       -0.98453747251525
H            7.71902802361118        3.25154464935935       -2.00244463436561
H            3.70737616376953        2.45859198021311       -1.10619563114029
H            2.90762965702899        5.68019551315237       -5.16784985111070
H            3.60397900690874        6.11849477960633       -7.48717217061294
H            7.07223903532618        3.69454987399920       -6.89513073819410
H            6.38033618675686        3.24954303854400       -4.59438381591206
H            5.29045303506377        7.30985394593859       -8.66182526916168
H            6.00119565586225        7.76877539189308      -10.96720824206805
H            6.96196265613485        5.96545797179263      -12.35003104288513
H            7.19833302604253        3.69497703057342      -11.41468673987166
H            6.47125140313234        3.22503915897977       -9.11747973189654
H            4.93612088834213        5.22478420335401       -0.10323000974103
H            4.17253659931424        6.27737131067344       -1.29970630302689
H            3.41458911126945        4.75029178344796       -0.86940433016619
H            6.94674136188896        5.65796232692587       -1.66429661153082
H            6.97210976139353        4.99115823125280       -3.30677060948729
H            5.96803236667952        6.37767472588299       -2.93822167988076
H            5.44792443071715       -1.79903035866434        0.63126631453263
H            6.24108902787516       -1.31727061471040       -0.86206570714605
H            6.73703977219925       -0.61486421566389        0.69401212294629
H            3.29917707398593       -1.31374901611168       -0.44009036603723
H            2.77689509594940        0.34441221206075       -0.69677018359071
H            3.82053345260370       -0.45399337919775       -1.87942594863217
H            4.92848697179685        1.64822820690364        3.67925244696185
H            4.70306695342567        0.43222262330774        5.80209004480411
H            3.21049394609654       -2.96059117932487        3.67445828627129
H            3.44589167741667       -1.77405824101366        1.57655232410910
H            3.08997824098637       -0.42099223328231        7.26290230712050
H            2.89051836359549       -1.65431299849443        9.37568363721991
H            3.50210029861930       -4.04258781406908        9.47963651466823
H            4.32059445346055       -5.18970368842833        7.45500339162649
H            4.53914760193941       -3.95868780885154        5.34297696618215
