75
 energy: -82.718300988319 gnorm: 0.000332266941 xtb: 6.7.1 (edcfbbe)
C            1.72675378247188        1.63488325040275        0.16979522256260
C            1.50817611243133        2.30235824882435       -1.18275009675462
C            1.78544545680786        1.37473898285217       -2.36689169730134
C            0.90504399360552        0.12478007532212       -2.42803710686060
C           -0.59910707447836        0.39647540704717       -2.48930171181990
C           -1.05718120999579        1.22839592109430       -3.68883159319926
C           -0.73701534316532        0.62207572578944       -5.05684768899284
C           -1.29740037159768       -0.78323780327822       -5.28779695603504
C           -2.81184572646976       -0.91094836067131       -5.10685098111062
C           -3.64514988496140       -0.03677262405069       -6.04576421852387
C           -3.44665809993392       -0.30248018256869       -7.54165344737512
C           -3.60389040742250       -1.73651291289093       -8.05806339742075
N           -4.97500190000024       -2.33892612988341       -8.12586209548722
C           -5.99389157311477       -1.40485692647912       -8.69350024217069
C           -5.71613264992109       -0.83171216963479      -10.08916607613799
C           -5.89990736255245       -1.79788301292140      -11.23558840787503
C           -4.77929941311487       -2.17213931254523      -11.97155426517841
C           -4.85092500615708       -3.07041326493282      -13.02623380792552
C           -6.09829492623342       -3.58994854322978      -13.34736132552211
C           -7.22333049375725       -3.20096054566428      -12.64836158421295
C           -7.15273598810562       -2.30327578539848      -11.58839587933958
C           -8.42437061853750       -1.91909742011663      -10.88945070683783
C           -3.62400721809038       -3.46073901795252      -13.80940881595177
C           -3.10236232336366       -2.26443915552617      -14.60880274142021
C           -2.53187353545103       -4.02476453651540      -12.89744601175154
C           -4.88535234470519       -3.56667062551651       -8.94222626482051
C           -5.43634884133693       -2.74479519171948       -6.78369939070112
H            1.00233905603863        0.84242437026757        0.34040279328500
H            1.62200086612998        2.36411917295691        0.96957939881175
H            2.72538722662693        1.20743177475510        0.22603056983763
H            0.48735982146833        2.68493171629968       -1.23931978088753
H            2.17940742099389        3.16054594491816       -1.26388334658224
H            1.67250275739866        1.94504371770015       -3.29162643404057
H            2.82706456263157        1.04828485631152       -2.31515908103025
H            1.20503159938886       -0.46237018472674       -3.29922308416183
H            1.10148292199941       -0.49086427099379       -1.54850662165793
H           -1.12071880066533       -0.56385966577414       -2.48975710677613
H           -0.90329409195345        0.91971008772961       -1.58138153895971
H           -2.13475410336602        1.38999733927706       -3.60367352646164
H           -0.58694743000749        2.21153514051839       -3.63986699045558
H           -1.11070787539999        1.29923502204904       -5.82914030901550
H            0.34588239274181        0.57262429038278       -5.17873530863596
H           -1.01383181969392       -1.10652557931263       -6.29304777916735
H           -0.82028873184619       -1.47116036399959       -4.58859148226285
H           -3.08582519509299       -1.96291128561151       -5.22055367158554
H           -3.06594729987406       -0.63268990021038       -4.08396558696464
H           -4.69980188095191       -0.11780581896067       -5.77098974819816
H           -3.37193159808841        1.00514792332953       -5.87544137294847
H           -4.08345660598582        0.38147535369207       -8.10268204599967
H           -2.41679289888262       -0.03292796432455       -7.78520704254206
H           -3.20578520932597       -1.76248049943295       -9.07391516293217
H           -2.99189706462322       -2.40201597451895       -7.44742238561732
H           -6.94030775722634       -1.94585633882411       -8.72161551234090
H           -6.09711097278066       -0.57972449231357       -7.98683625185269
H           -4.71502374937560       -0.40432130125170      -10.13952917407586
H           -6.41623503535942       -0.00167875420284      -10.21519466199896
H           -3.82236346486051       -1.73277275687547      -11.72179197759664
H           -6.19275095098019       -4.29053181638667      -14.16289484321778
H           -8.18649748749352       -3.59728993443816      -12.93277738254780
H           -9.25412858004560       -1.97044247910963      -11.58975848849901
H           -8.65134709052161       -2.61098311656722      -10.07634288653057
H           -8.38580283270170       -0.91025529216556      -10.48648740424751
H           -3.91140470267257       -4.24459826186772      -14.51686286107346
H           -2.78382169014685       -1.46245168061703      -13.94672898633932
H           -2.25387574856356       -2.56375830569413      -15.21837091085328
H           -3.87982704417851       -1.87950573577545      -15.26428117508074
H           -2.91824380931879       -4.85069199137864      -12.30284685173647
H           -1.70462312420582       -4.39344633536929      -13.49764681665920
H           -2.14392363565086       -3.26060409075584      -12.22730060833889
H           -4.16153652542611       -4.25120002787097       -8.50331527194093
H           -5.85500176503821       -4.05936153916298       -8.98080105470627
H           -4.58479323637170       -3.33271388034733       -9.96194512100911
H           -4.73470785283443       -3.45194895551972       -6.34567856886514
H           -5.52224256233623       -1.88469186619673       -6.12672177463295
H           -6.40986543391696       -3.22719033857695       -6.85521348318982
