26
 energy: -35.658121185608 gnorm: 0.000635225231 xtb: 6.7.1 (edcfbbe)
C            2.44745251830550        0.59972376536544       -0.08261787759819
N            1.07864177828197        0.15572293933590       -0.04951115530560
C            0.69083240748192       -1.15230436407284       -0.02902561005384
C           -0.66505364355869       -1.17224089201099        0.03365433042055
N           -1.09122406835812        0.12381781771957        0.05270157782061
C           -0.01789707513706        0.92761129384335        0.00115801807195
C           -0.03939224788186        2.38715690281742        0.00033444594817
C           -0.72896737298464        3.07925686848083        0.99769977674666
C           -0.73985688362077        4.46170228553502        0.99566724151377
C           -0.08026971176152        5.16308242900471       -0.00126992652028
C            0.59970481688909        4.48027472675584       -0.99740484800301
C            0.62952731074359        3.09810810643514       -0.99783746263799
C           -2.47251841091278        0.52734102373917        0.08538282362371
H            2.84217886849535        0.55022295336309       -1.09890624112494
H            2.51265444396798        1.62558662237107        0.27573589712578
H            3.05199709577335       -0.04390317308859        0.55508894245890
H            1.39406280759950       -1.95878101652101       -0.05876804022502
H           -1.34422404245279       -1.99904879774347        0.06428165852584
H           -1.22544561690018        2.53593213593044        1.78685088160549
H           -1.26553082221273        4.99141718880459        1.77407032845223
H           -0.09614922050474        6.24146402673644       -0.00189317148815
H            1.10957031424766        5.02433672096636       -1.77642615311362
H            1.14180638061923        2.56872388811922       -1.78636386232505
H           -2.86557618372317        0.46743418228720        1.10172288692992
H           -2.56793440227990        1.55038062022283       -0.27415597323374
H           -3.05785904011595       -0.13453825439643       -0.55149848761440
