71
 energy: -74.146222866867 gnorm: 0.000226813998 xtb: 6.7.1 (edcfbbe)
C            1.19891212757857       -0.13190165126034       -0.60667004771236
C            1.28481271494702       -1.06936002069460        0.59192793617891
C            1.52042521753937       -0.33865703729270        1.91478242097088
C            0.41944649054577        0.64640463420479        2.31311241400798
C           -0.97510341107974        0.03412702203039        2.45567121629795
C           -1.08859344104241       -1.07918759732417        3.49892899761476
C           -0.72069923291665       -0.66836824748062        4.92640756352814
C           -1.51735666031163        0.51281411547283        5.48408751931272
C           -3.03451775309408        0.31916216866488        5.49389268557601
C           -3.53202365314939       -0.83554354237258        6.36536225146615
C           -3.21363083909547       -0.70526344961758        7.85683249838634
C           -3.71029579942855        0.58575993470879        8.51236131127371
C           -5.20775280703947        0.85197980339602        8.34608583905954
C           -6.12582918841527       -0.20757902479157        8.95850418735001
C           -5.96607166843044       -0.42638777368007       10.46971071341208
C           -6.00714058080951        0.81599392429126       11.36545279212424
N           -7.34497458702238        1.30516812938839       11.82839441337168
C           -8.00147338221567        0.34235413151152       12.76731468554367
C           -7.33344051350404        0.14800666581598       14.13463533246529
C           -8.02209949950107        0.89760381996699       15.28152178132311
C           -9.38571773902843        0.31346037197575       15.63193131820626
C           -7.15003543280932        2.61183461238685       12.48517198971000
C           -8.25145531109473        1.50711969824581       10.68318596356603
H            0.32124286239882        0.50645596213664       -0.54435057207675
H            1.13381730460014       -0.70495547418687       -1.52879437439355
H            2.08242576556353        0.50072128172481       -0.65892985913026
H            0.37273311995508       -1.66566780445978        0.65364746916701
H            2.11479715419715       -1.76316301887734        0.43708926783025
H            1.64570479359436       -1.08081034605824        2.70613554717498
H            2.45901308230409        0.21696197181071        1.84203791477237
H            0.70670391023693        1.11536907254503        3.25690105198037
H            0.36661707151710        1.44171453765386        1.56703088880777
H           -1.67603803591560        0.83481253860827        2.70303032282400
H           -1.28731539196801       -0.37183062879463        1.49163665820504
H           -2.11326584062598       -1.45837932770994        3.48471122367808
H           -0.44116116515512       -1.90857355081299        3.20855199354831
H           -0.85390626371273       -1.53596181593085        5.57710464285297
H            0.33842280876316       -0.40642959075092        4.96105515248676
H           -1.16876893884381        0.71315499698237        6.50005464216598
H           -1.29491100640817        1.40208513596765        4.89156094650389
H           -3.49747677493875        1.25219261339983        5.82412205150233
H           -3.37624826959016        0.14206841333482        4.47305145515312
H           -4.61267418740488       -0.92773822981219        6.23032420390877
H           -3.09020597998743       -1.76677308609821        6.00826428978850
H           -3.63865830433593       -1.56857471062079        8.37518703781886
H           -2.13275350743795       -0.75471205331312        7.99595562739053
H           -3.45180035036511        0.55671909616073        9.57431537984774
H           -3.17141355495638        1.42921901259025        8.07873633651770
H           -5.43505997661251        1.83977147296549        8.75910150108878
H           -5.43687453044638        0.90690782331538        7.28202682084393
H           -7.15602423689654        0.04039791308262        8.70075519636125
H           -5.91115066337903       -1.16383603890869        8.48095215083843
H           -6.69398116337262       -1.16964084981095       10.79737070995963
H           -4.98321585357106       -0.87255273890255       10.62897960526523
H           -5.42271766487477        0.61111535002148       12.26312095551890
H           -5.52485975380627        1.64049205805760       10.83905907628792
H           -9.02242177067273        0.69486718376892       12.92402814156434
H           -8.06040875298737       -0.61417096964042       12.24773812551043
H           -7.36079545736397       -0.91609181810436       14.37396931568358
H           -6.28065969032728        0.42820315058123       14.10292838371235
H           -7.38090767464118        0.82436436699493       16.16065839004997
H           -8.12840302684804        1.95758531665078       15.04651965951854
H           -9.29294590129728       -0.73502471388277       15.90249227193737
H           -9.80874028778200        0.84481560136696       16.47938244457740
H          -10.08960042677431        0.39147164966095       14.80619825450324
H           -6.78625931485895        3.34083216425177       11.76282352102625
H           -8.09569541386655        2.96774065743812       12.88955771317195
H           -6.42755195690749        2.53515825184919       13.29381790310744
H           -7.75644816790431        2.09925686839976        9.91617302178984
H           -8.54684849362896        0.55075691836648       10.25977151675682
H           -9.14864517337202        2.03375469919709       11.00520023959140
