28
 energy: -37.488396442360 gnorm: 0.000267624295 xtb: 6.7.1 (edcfbbe)
C           -2.30838513694081        0.22885323291402        0.20761635575017
N           -0.87164034813089        0.08486368161683        0.13397648222677
C           -0.34006694590499       -1.05445539713060       -0.33376045582966
C            1.01876170128843       -1.23066366957622       -0.41409176611259
C            1.88978206655017       -0.21237963678833       -0.00633968416401
C            1.29962697841956        0.95515147971936        0.49334323725605
C           -0.06693202511778        1.07310349427488        0.55050100718407
C            3.36216121618868       -0.38688193459445       -0.03208450733585
C            3.76824246165419       -0.88800516502637        1.34871516007582
C            4.14235783259563        0.01082965694815        2.33723966480106
C            4.52993713356790       -0.44879216239421        3.58414939666683
C            4.53309594814499       -1.80684969124786        3.85395125531313
C            4.14957806139837       -2.70543940202411        2.87273825254525
C            3.76086549886609       -2.24777029260860        1.62553350812304
H           -2.77974621546874       -0.23872313786914       -0.65546823892695
H           -2.68833438551966       -0.25167585250998        1.11159393817343
H           -2.58333301073986        1.28115511493899        0.23262504427451
H           -1.02888306565140       -1.82262690554723       -0.65282354655228
H            1.40810117196816       -2.15671631109049       -0.80595602436521
H            1.91431835735187        1.77464697730793        0.82967816334638
H           -0.53901680005283        1.96934979070522        0.92446199688021
H            3.65420192122758       -1.11759949091191       -0.78539743093448
H            3.86098006420780        0.56103753322708       -0.23162576682561
H            4.15892811865444        1.07082607787808        2.12997300041916
H            4.83574748377008        0.25564698236980        4.34198284017736
H            4.83833921282993       -2.16430572964588        4.82493394132927
H            4.15753840178391       -3.76525484043068        3.07480680957967
H            3.47499430305897       -2.95561440250309        0.86124736692453
