30
 energy: -32.015702265771 gnorm: 0.000339439458 xtb: 6.7.1 (edcfbbe)
C            0.80458841143727        0.10616686689274        0.54680678099210
C            0.48792473922118        1.39406896009798       -0.20723178237446
C            1.02138623604170        1.51509206274127       -1.63803774817245
N            0.47760952515681        0.61684534594945       -2.71463374893284
C            0.80182222735501        1.26277622847920       -4.00245453491871
C            1.13319438245851       -0.72167557868103       -2.65070526724401
C            0.57090314846689       -1.72905629852092       -3.64956050269247
C           -0.93892308796746       -1.86988528578448       -3.48688833810965
C           -1.59773566418846       -0.49895611950190       -3.59881731062569
C           -0.99492037869819        0.45387736122683       -2.57271741362950
H            0.18041991303518       -0.72886509032109        0.23630987522576
H            0.61547249877193        0.26297454824817        1.60528803246657
H            1.85169658154942       -0.16564831519914        0.43735740207140
H           -0.58341005628495        1.59307176290115       -0.17281780978818
H            0.96947691074741        2.21637180171151        0.32729703423038
H            0.82180501648768        2.53971867789865       -1.95915380892665
H            2.10411310750481        1.37117936632506       -1.62346690070888
H            0.25594818150395        2.19940490738501       -4.09982300157921
H            1.86931780504043        1.47009880276846       -4.05204441453923
H            0.53558708316373        0.62035523532042       -4.83565031231148
H            0.99127025791785       -1.11090373215709       -1.64416425243502
H            2.20261716065271       -0.58405093724959       -2.82125464901123
H            1.05763064827282       -2.68607901877750       -3.45918283265361
H            0.81399689393124       -1.45012051792306       -4.67506763074900
H           -1.33429894954013       -2.53926082852217       -4.24881715951382
H           -1.16574158791468       -2.30732865938552       -2.51294201416943
H           -1.49901550519225       -0.10944486688983       -4.61185781299899
H           -2.66484631984336       -0.57923517906905       -3.39011994089155
H           -1.45543169181025        1.44099384507288       -2.64362408325469
H           -1.18841748727680        0.04573465496352       -1.58068585475552
