54
 energy: -91.247804404112 gnorm: 0.000275918057 xtb: 6.7.1 (edcfbbe)
C            1.84957696588809       -0.81654036748041        0.23693256675678
O            0.76732430899756       -1.20686960871685       -0.59162024331568
C            1.02210550416775       -1.51697213202172       -1.88689264216482
C            2.26454021964640       -1.53918924270292       -2.49664001820703
C            2.43649018931489       -1.89223083054284       -3.83487452285842
C            1.38131252452043       -2.25582879334079       -4.65556623220218
C            0.10992146000370       -2.24174679633761       -4.05256496274725
C           -0.06347816058630       -1.86732367080198       -2.70755104869620
N           -1.41808123123903       -1.93299945793534       -2.45232945944055
C           -2.09354307551718       -1.72397891149496       -1.19886905076286
C           -2.94874821739087       -2.93743251074615       -0.78634828271170
O           -3.98693436726891       -2.78581899510317       -0.20676417240709
C           -2.42315531002413       -4.26545304630145       -1.19607019670177
C           -1.05728121041062       -4.55309551438046       -1.20193395173474
C           -0.61727568748735       -5.79020102440761       -1.62707454513364
C           -1.54550964465420       -6.73724386017626       -2.03842873877444
C           -2.90919179990148       -6.48314669436195       -1.99860646631099
C           -3.34466750195156       -5.24402639452377       -1.57279040875721
N           -1.07189248498566       -8.02305626963686       -2.51919653233423
O            0.11933921730203       -8.13855079001660       -2.68970911573601
O           -1.90052031810997       -8.87289243014243       -2.73493960270711
C           -2.01988285852017       -2.32890339367178       -3.57141682925613
N           -1.14600533133091       -2.52295087615269       -4.54777527983818
C           -1.47715405671802       -3.09423124157153       -5.84004620804436
C           -1.67763974151309       -4.58705063628435       -5.69475457443690
C           -2.95469033981470       -5.11829621181174       -5.57462550408013
C           -3.13065157987581       -6.48638553650349       -5.45613404273170
C           -2.03246282639557       -7.33012544935047       -5.44690779320283
C           -0.75450087514866       -6.80180955856804       -5.54015066905037
C           -0.57762648851190       -5.43440407935785       -5.66098430952350
O            1.46959691371312       -2.61189353583982       -5.95552926575555
C            2.74222368978606       -2.60395430674674       -6.57948951843370
H            1.40783328392543       -0.60418142710558        1.20822879637887
H            2.33547041765251        0.08297206532705       -0.14644499524174
H            2.58042670309298       -1.62223137706738        0.33760058078438
H            3.14389722295028       -1.27543345322285       -1.93360504187050
H            3.43912347714807       -1.87610232768839       -4.22763910458480
H           -1.34835295503920       -1.52865056164115       -0.42361185035475
H           -2.75619578020921       -0.85442232823204       -1.25755372331429
H           -0.34246553387414       -3.83182912572994       -0.83887700439688
H            0.43229620526029       -6.04124805320906       -1.64092259412550
H           -3.60189882606211       -7.25561475013392       -2.29473521111214
H           -4.39825329604671       -5.01523129091096       -1.52575143909632
H           -3.07996335083395       -2.46712316213446       -3.67068496699458
H           -2.39100267255599       -2.62139756664040       -6.20588998876685
H           -0.65506249352237       -2.88230527314211       -6.52280682836139
H           -3.81711696300280       -4.46780733278858       -5.60483429946727
H           -4.12658383130066       -6.89496835857780       -5.38609286339033
H           -2.17328915574138       -8.39691012041058       -5.36757955524401
H            0.10384585205308       -7.45548624920364       -5.52600347339982
H            0.41624519485135       -5.02360690651624       -5.75381034415345
H            3.18189823101875       -1.60421631209833       -6.56769709066908
H            3.42093968837498       -3.31589213484936       -6.10412926930060
H            2.56077069588382       -2.90780178704367       -7.60840811203480
