16
 energy: -23.501383391524 gnorm: 0.000195010538 xtb: 6.7.1 (edcfbbe)
C            0.98600205751617        0.10366443008619        0.11280537720509
N            0.50483746085774        0.73309293551880        1.32328423277118
C           -0.14243177207684        0.02329231157610        2.24545381914040
C           -0.59342338441339        0.62474144172728        3.41061655567517
C           -0.37177480309548        1.96813282825504        3.62040938528200
C            0.31423835677649        2.71161075755819        2.64220025535542
C            0.73848203129116        2.04097651505075        1.49588723718590
O            0.52007935378630        3.99881635545725        2.85691745223370
H            0.64406191828635        0.65629943319158       -0.76241855912393
H            0.62425364547963       -0.91946288459517        0.04514900670420
H            2.07725294466950        0.08949661842769        0.10598466910847
H           -0.30122224147471       -1.02654597039587        2.05446982047516
H           -1.11629071398182        0.03280276088537        4.14429105772619
H           -0.70755860822165        2.47252312639670        4.51258321300379
H            1.27132239252206        2.55480934347730        0.70732582945004
H            0.99658136207849        4.45339999738281        2.14764064780722
