46
 energy: -76.794834883166 gnorm: 0.000137394023 xtb: 6.7.1 (edcfbbe)
O            2.34546734634160       -0.06890540492141        2.50451082462965
C            2.99887373287699        0.12961341880364        1.50879313012294
C            3.14853798537567        1.45387566976528        0.88274391144914
C            3.97724071234895        1.69656766603930       -0.21739101250266
C            4.08684250156394        2.97438963755639       -0.72830825725751
C            3.36775996337161        4.00831688052877       -0.14242105152663
C            2.53362689353021        3.78813721555517        0.94486627707502
C            2.42827179866595        2.51015550729372        1.45368803275354
N            3.49849557440322        5.35769024877762       -0.68188494199667
O            4.23415513626322        5.49857623838917       -1.62819977671150
O            2.86352857622673        6.22746955319861       -0.13882381314724
C            3.75291125016784       -1.05105662867677        0.85929692040348
N            3.41934183856038       -2.26447663474088        1.55259799318928
C            3.72118485452676       -2.52414035976938        2.83429201449284
C            4.65385099069706       -1.73938036525065        3.66568872552880
N            3.10969080099855       -3.64479156884467        3.22680752315300
C            2.36291879596336       -4.13373880860523        2.16954675571415
C            2.55026403059162       -3.24251824087588        1.10034110669417
C            1.92022287470767       -3.44569977678867       -0.11968445624378
C            1.10665925500619       -4.55616274820366       -0.22709221274857
C            0.91527086650231       -5.43578017707298        0.84062970126196
C            1.53506029388872       -5.24196735651506        2.05833512798283
C            3.16731202528464       -4.23357817031426        4.52023203217117
C            3.59942971322217       -5.54651224957053        4.65192420562305
C            3.64085698550253       -6.12058865902132        5.91064904117733
C            3.25187948462808       -5.39086082413686        7.02258642276637
C            2.81678685993393       -4.08290887717013        6.88121353685226
C            2.77116428552569       -3.49634750639915        5.62858418459547
H            4.54421104421138        0.90372628951897       -0.67781130036788
H            4.72266958369835        3.19026912594939       -1.57375783036484
H            1.98831808864137        4.61572869784219        1.37268671595961
H            1.79074457227875        2.30400265474479        2.29979559986338
H            3.46346091973853       -1.15257019094810       -0.18705971273025
H            4.82907785967053       -0.86247983711085        0.91638489825358
H            4.17345320541297       -0.82724988814047        4.02137218430698
H            4.96686039773618       -2.32210264860872        4.52871851785779
H            5.53274106207737       -1.45202171212590        3.09036334283108
H            2.04842426868191       -2.77317420883428       -0.95223878733427
H            0.60016336179474       -4.74784147900353       -1.15944365473767
H            0.26428563660047       -6.28495491746540        0.70869647983121
H            1.38265931995299       -5.91308981301362        2.88760872404253
H            3.90950873197562       -6.10373521605999        3.78087927655551
H            3.97927700150996       -7.13859897219240        6.02094622539158
H            3.28536236931948       -5.84337780527975        8.00086556128935
H            2.50753374417057       -3.51718226546940        7.74569334967553
H            2.41550340579880       -2.48487549283233        5.50507846401535
