31
 energy: -36.607066176109 gnorm: 0.000276425028 xtb: 6.7.1 (edcfbbe)
C            1.91390983202224       -0.34900926086641       -0.25298966246156
C            0.78091498725819        0.02775110449797       -1.19828335205092
C            0.68263713031218       -0.90616031991327       -2.40874891921511
N            0.36775634960898       -2.26697013779746       -2.02204232261527
C           -0.74989502460638       -2.60621616423588       -1.31317057525358
C           -0.71498433152192       -3.94764032939795       -1.11815568821165
N            0.42261443220783       -4.41361291650121       -1.70997782467458
C            1.06893271023530       -3.38117323844990       -2.26836071972103
C            2.35106773260472       -3.48333998032627       -3.01165070083134
C            3.56291742061857       -3.37754379991874       -2.07606468927998
C            0.78571602539369       -5.81543422873215       -1.76757113403765
C            0.11719072486749       -6.50416354194697       -2.95334199079147
H            1.77814333415506       -1.35103290903888        0.15030516499660
H            1.94271353196860        0.34526958739690        0.58142970343350
H            2.87387507390355       -0.29767517507734       -0.76163555112595
H           -0.16420028451409        0.03401643628216       -0.65462160204060
H            0.94654802659507        1.03603881844491       -1.57833603170004
H           -0.10514378109061       -0.55265671082174       -3.08072969146338
H            1.62984131889306       -0.90314411268068       -2.94781219916350
H           -1.47958125864841       -1.88551870517637       -1.00888862896492
H           -1.40103528038229       -4.59117776463812       -0.60748316821209
H            2.38364209293117       -4.43822746659144       -3.53739508278089
H            2.40389361894892       -2.69618971003557       -3.76446739227472
H            3.54224161815432       -4.15378014783563       -1.31561555310786
H            4.47490996454836       -3.49019560284628       -2.65422838872090
H            3.58889316249896       -2.41262711265584       -1.57913989904993
H            1.87039610886062       -5.90292440880256       -1.83539116319905
H            0.45960431707806       -6.28057656526733       -0.83510507630497
H            0.42787598625130       -6.05707223705460       -3.89438629505025
H            0.39526886252192       -7.55355103969198       -2.96376546849879
H           -0.96500440167142       -6.43726236032084       -2.87860609762815
