89
 energy: -92.734827050163 gnorm: 0.000277115910 xtb: 6.7.1 (edcfbbe)
C            0.78835761054303        0.63192368061972       -0.29444573748359
C            0.75173329139821       -0.54756040213856       -1.25886785632327
C            1.37943000589208       -1.81843603511633       -0.68396847122985
C            0.69452975202704       -2.36950482131405        0.56859042219857
C           -0.78664303313727       -2.71284493346039        0.39965221144995
C           -1.09080845274860       -3.74635344481070       -0.68645407644470
C           -0.42874231560608       -5.11099718937327       -0.48531562411726
C           -0.79315007971979       -5.82347984028421        0.81898321024322
C           -2.29001842851742       -6.05808708605772        1.03197127050295
C           -2.97650291223946       -6.86524210011856       -0.07107626801133
C           -2.43970161821597       -8.28405957806494       -0.26705554611632
C           -2.53917667867461       -9.19599021571026        0.95875073163656
C           -3.94371488811141       -9.32579931971175        1.55436459466042
C           -4.95596429055724       -9.97161820213015        0.59511843606576
C           -5.36606389594055      -11.38754990131915        0.99852733610237
C           -6.22792284382231      -11.45444677054779        2.26805083105537
P           -8.03580769125487      -11.34571802536319        1.99072152232202
C           -8.50926543740177      -12.60252637208877        0.74188794596790
C           -7.83065603764327      -13.97216000975022        0.83550906379963
C           -8.16248647467231      -14.77652945805787        2.09218073215333
C           -9.61708779034722      -15.22782753209214        2.15566343353679
C           -8.98981032784348      -11.67037893359346        3.53239604701940
C           -8.18872461910386      -11.69751179034963        4.83595125190268
C           -7.77757936910013      -10.30813007490759        5.32592923030941
C           -8.92097122035469       -9.56316957211485        6.00550583325296
C           -8.66973848200935       -9.79395207702963        1.23619319164098
C           -8.80473092828952       -8.56655499753106        2.14095181993087
C           -7.51019158409107       -7.77394762585119        2.33300671200156
C           -7.19071212426657       -6.87472461154271        1.14430799190577
H            0.16344260761922        0.44761951479849        0.57570138198449
H            0.42511283068887        1.53163157102141       -0.78606725598997
H            1.80576284077707        0.81473073692611        0.04434310199274
H           -0.28032969540987       -0.74348343446122       -1.55512465755882
H            1.30254805639104       -0.27886666558611       -2.16369016718478
H            1.38563423592428       -2.58639156890391       -1.46039477831602
H            2.42172044942806       -1.60690056313944       -0.43162277941140
H            1.23744931338409       -3.26146561563066        0.88896895655640
H            0.78340803079814       -1.63790655121390        1.37409545415424
H           -1.16454432792408       -3.07445890496405        1.35886816618306
H           -1.33992292602224       -1.80137854264589        0.16449053324205
H           -2.17451359098510       -3.87495667372644       -0.74229918111791
H           -0.76879841348499       -3.35340731483114       -1.65260145554495
H           -0.69519602470433       -5.74812452803670       -1.33196401920841
H            0.65555472460451       -4.98917125789001       -0.51109159054625
H           -0.26989890090452       -6.78215397821334        0.84213869257031
H           -0.42034896810794       -5.23846520625779        1.66185524873024
H           -2.42385754094511       -6.56368683016197        1.99155796449959
H           -2.79348818395682       -5.09219002917560        1.10813426783107
H           -4.04699269735922       -6.91152734758462        0.14480543182092
H           -2.87108192621783       -6.33288353428463       -1.01741940905956
H           -2.97775118121908       -8.73367774483184       -1.10564883983693
H           -1.39059215247626       -8.23257407308363       -0.56020000316409
H           -2.17804121773334      -10.18879908060913        0.67850572872128
H           -1.87460430151219       -8.81817303928211        1.73686171596829
H           -3.86303873661975       -9.92300346398949        2.46617706586265
H           -4.28886134592044       -8.33522961036633        1.85000946597236
H           -5.84443923923441       -9.34786731368904        0.51200154246635
H           -4.51469447911252      -10.02935666906695       -0.39958403289761
H           -5.88989885669254      -11.85492962784030        0.16218263474634
H           -4.45850091937394      -11.96765938140473        1.17678878819899
H           -6.08662077816243      -12.42252698335625        2.75935180314587
H           -5.92712322775814      -10.68099480611172        2.97634775875303
H           -9.59556101355167      -12.71187455538942        0.80829600567268
H           -8.29038670803310      -12.16037809699118       -0.23578112833646
H           -8.14297210241544      -14.55054749055222       -0.03676458318678
H           -6.74836337965249      -13.85220481737712        0.77005218854887
H           -7.53025440439148      -15.66601614735174        2.09311864508487
H           -7.90516922717332      -14.19829237091171        2.98377443877007
H           -9.86171202787305      -15.83021972912207        1.28468160567600
H           -9.78106250447001      -15.83520011439330        3.04150191427299
H          -10.30981954307807      -14.38926688419595        2.19153611881397
H           -9.77283245312679      -10.91048852308670        3.59111160996818
H           -9.48611380996201      -12.63188149868887        3.38740627724784
H           -8.80981817071196      -12.16604534984908        5.60196284980982
H           -7.30406473366242      -12.32559976051136        4.71577420559829
H           -6.96316323474859      -10.41615013932962        6.04354259194474
H           -7.40320539897722       -9.71835357192460        4.48526586641986
H           -9.24712467585500      -10.10020264142917        6.89227374560999
H           -8.59451877604409       -8.57316539155157        6.31147166925609
H           -9.77964194049050       -9.44625652870380        5.34774058220913
H           -8.05253536468245       -9.56661289377434        0.36448907749920
H           -9.66224897544702      -10.07855252671251        0.86603716354335
H           -9.54715225934730       -7.90241742216612        1.69362146012085
H           -9.19345250771469       -8.86606233518633        3.11473365917503
H           -7.61893520363586       -7.14521644118374        3.21820725050865
H           -6.67910709789713       -8.45790965670242        2.51639774277621
H           -7.97802254413305       -6.13814357043455        1.00642299377652
H           -6.25918816966619       -6.34193022923710        1.31596850602134
H           -7.09205636717524       -7.43947555585333        0.21963976968139
