34
 energy: -39.328432155630 gnorm: 0.000435320034 xtb: 6.7.1 (edcfbbe)
C           -0.75421401036878       -0.78747816801010       -0.03922618715090
C           -0.08209796468764       -0.86826677137682        1.27357781274676
N            0.41681673409862       -1.99969234248453        1.79280084573423
C            0.40292588868473       -3.29461123208298        1.16573882253297
C            0.94706072145177       -1.71918095972389        3.01790328305756
C            0.76644884096151       -0.39271714254757        3.23707475540552
N            0.13100538145567        0.12271469342154        2.14401023555328
C           -0.19246089325298        1.52736674743075        2.00476308637833
C            1.05949761572725        2.40037105500972        2.01138218171875
Si           2.29474109796882        2.17083206777340        0.53918400843661
C            1.34292961434560        2.45924554659247       -1.08558536959610
C            3.67440010398935        3.44600867157933        0.79320353261330
C            3.02272246839182        0.40108526553824        0.57934426755288
H           -1.44946609336587        0.04628369643987       -0.07449531172186
H           -1.30601189767582       -1.70355095145088       -0.23821068116820
H           -0.02375865436945       -0.65604168643204       -0.83893683461790
H           -0.62074373820696       -3.64955379320291        1.03676235884608
H            0.88696995666491       -3.25195562615300        0.18976983867791
H            0.93934033369749       -4.00101984583019        1.79452146763367
H            1.40375378962475       -2.46781907179057        3.63135963121736
H            1.03331704620779        0.20990570615158        4.07971260380845
H           -0.73797276941999        1.67571853745627        1.07428175536075
H           -0.84725998052944        1.79921852553476        2.83949048442756
H            0.71891919634496        3.43444237061991        2.00166199869162
H            1.58584887005745        2.26860088220445        2.95562819368503
H            0.91190148440143        3.45542296921277       -1.11116450391810
H            2.01273142524827        2.38038578170905       -1.93592839973979
H            0.53527835108389        1.75153190763448       -1.24801540916094
H            4.21130808715482        3.27739300168887        1.72213449250042
H            4.39991627985352        3.40094401879806       -0.01293764873624
H            3.28336364339953        4.45846257043188        0.82096326348988
H            3.25845178825721        0.07743051228622        1.58909722987547
H            2.36964487360738       -0.34220105264956        0.13150730542206
H            3.95013240920030        0.38165411621725        0.01638689044501
