32
 energy: -40.142180651305 gnorm: 0.000393961230 xtb: 6.7.1 (edcfbbe)
C           -0.14166771499430        1.38925296348993        0.67315524337570
C            1.37701366643212        1.38297412086694        0.70432262339667
O            1.92545502926105        2.17012666948030       -0.37621773470857
C            2.01958724745632        1.61008615187754       -1.55701636718865
O            1.69277463271555        0.49306634973715       -1.85475550400177
C            2.66855372173546        2.61074495077509       -2.53553473938559
N            2.45401814829572        2.30454602698559       -3.96803030103029
C            1.00159318797607        2.05545561444576       -4.26021911919991
C            0.03383264696169        3.09593875522225       -3.72003100530694
C            2.92281863637491        3.45208734596664       -4.80854093236193
C            4.36693056581556        3.88287718843131       -4.60452808454819
C            3.19942243972373        1.08056716481701       -4.33015900622360
H           -0.52006466912351        2.40818984664098        0.69654186746917
H           -0.51532650995157        0.85956560446081        1.54362041948870
H           -0.50895296742917        0.88813690877416       -0.21931863736679
H            1.75902352813031        1.86003794767855        1.60700790992372
H            1.76160752563100        0.36276502116810        0.62333219092967
H            2.29128474063961        3.60767799056404       -2.30349430506279
H            3.74056645503933        2.59597126196800       -2.32384308515531
H            0.90035926509042        1.98863347300049       -5.34486164438186
H            0.74680132021565        1.08454595999838       -3.83274290983924
H            0.23739265811736        4.09844954948444       -4.08626651052805
H           -0.96283869818705        2.82517705445261       -4.06014222634315
H            0.01134827439199        3.10962863545951       -2.63392430928284
H            2.78263910336322        3.16083630802309       -5.85145455136143
H            2.27237879632713        4.30249951553070       -4.60120202965166
H            5.07566571820799        3.08996528490634       -4.82341482415348
H            4.56843195282741        4.69324994291279       -5.30103898988130
H            4.55095870151975        4.26481265993289       -3.60476023397390
H            4.26282038922759        1.21576379967102       -4.15060219932219
H            2.84643493124515        0.24644894716859       -3.72601136520838
H            3.04348727695134        0.84902098613369       -5.38175963909466
