18
 energy: -26.501708694417 gnorm: 0.000692160653 xtb: 6.7.1 (edcfbbe)
N            1.19663400040330        0.00300763267716       -0.41652454117879
N            0.41417894465579       -0.93336111871700       -0.97286490806090
C            0.36318527171922       -2.25028309436603       -0.66429646856188
C           -0.49320987011197       -2.79687993825684       -1.59121519326340
N           -0.88167036557585       -1.78260320269749       -2.38072357569326
N           -0.33794552192480       -0.65697612752726       -1.99700565625588
C           -1.82613169272214       -1.81146371324908       -3.47202864170119
C           -3.23593833212800       -1.91155003249309       -2.94480287781787
C           -4.16899141102056       -1.01661693538849       -3.20151016357932
H            0.97892350176220        0.94398768044271       -0.72129378956347
H            1.37946721727136       -0.10475301683411        0.57257441674169
H            0.90977553612047       -2.69390984829733        0.14145819610891
H           -0.81885885204895       -3.80843198873046       -1.72365177257278
H           -1.69540940221207       -0.88960540917270       -4.04135573629093
H           -1.59829738647900       -2.67455101065958       -4.10519754175288
H           -3.44449610577113       -2.78536541973600       -2.34299112965075
H           -5.17144922369776       -1.12920386608233       -2.82858363511142
H           -3.97789630823983       -0.14656059091208       -3.80694698179591
