42
 energy: -56.320146380689 gnorm: 0.000354602598 xtb: 6.7.1 (edcfbbe)
O           -0.06812823390242        5.32898437001727       -0.49729418517405
C            0.70105702573905        5.28835608124385        0.43619481462985
C            1.40085895959263        6.47669507066284        0.93814077201722
C            2.18468016491140        6.50749750819947        2.09689051784760
C            2.79435102147124        7.68368394336765        2.48632101251802
C            2.64253271995461        8.84001737090645        1.73382962312299
C            1.86612182120477        8.82301931903510        0.58526223432757
C            1.24760363403082        7.65369323375592        0.19332078615503
C            0.98376995423829        3.98245753389629        1.20216108575315
N            0.55581224454957        2.69335102308258        0.59108415371403
C            1.34140572399521        2.30751962042747       -0.67328361243532
C            2.81795376134000        2.59061900529056       -0.50724379132197
C            3.67687692698097        1.55936586370425       -0.13809534940076
C            5.03579029734111        1.78659682030530       -0.00343371044254
C            5.55460062834010        3.04860005546019       -0.23668943860076
C            4.71062663464849        4.07843649129815       -0.61898376498281
C            3.35320937431621        3.85168760854700       -0.75854251045224
C            0.79582282394689        2.89408664197182       -1.97085017988611
C            0.83090485641181        1.64836413716793        1.60217589780363
C           -0.89631821327091        2.69819559481146        0.32852210175367
H            2.31454250451933        5.63171990142212        2.71315172891355
H            3.39242026865512        7.70168701855646        3.38410885587115
H            3.12649702588336        9.75209546332210        2.04671735978578
H            1.74110518023028        9.72056318258754        0.00021359585953
H            0.63578582225611        7.62400690920748       -0.69589586638354
H            2.05564318989889        3.91672214860570        1.39324884770994
H            0.46383907659355        4.08428782379074        2.16016172890473
H            1.21793194944140        1.22123203462120       -0.74070121807710
H            3.28950419862893        0.56301050657122        0.02275559301949
H            5.68758726078454        0.97427461677280        0.27716406126840
H            6.61336241736221        3.22590262195579       -0.13456937237512
H            5.10902540497573        5.06093014213752       -0.81825485913774
H            2.71483188713303        4.66274652864319       -1.07418737960192
H            1.50506254677168        2.65480638647632       -2.76014027549317
H           -0.15783834311589        2.45030105183724       -2.24134202804338
H            0.67946764529666        3.97091088389393       -1.94086264913949
H            0.32084621132811        1.88104585482582        2.53555699940410
H            0.47189518719699        0.68263730080886        1.25069588073225
H            1.90095557632224        1.58114798669561        1.79217358523301
H           -1.43453993420432        2.83041345598834        1.26586808808028
H           -1.15485069357491        3.51515408249729       -0.34102193558596
H           -1.19462650809324        1.75125680565168       -0.11591719789871
