27
 energy: -39.728549322882 gnorm: 0.000337873450 xtb: 6.7.1 (edcfbbe)
C            0.77204038094409       -1.22126193267996        0.26222762633138
C            0.63484513075825       -0.07923925868356       -0.68230932400835
O            0.32707455271083        1.04190056624517       -0.38519445581387
C            0.97708323183778       -0.40690524920481       -2.15793436854468
N            0.61642270108897        0.71148653457377       -2.98101446845155
C            1.03130739355145        1.95990754859791       -2.76047742099667
N            0.37426003966170        2.82662302454493       -3.51935606735243
C           -0.54274957861225        2.12053673762554       -4.27104074173852
C           -0.39728400139547        0.76490764836490       -3.91969277668338
C           -1.18683714217341       -0.21703732136466       -4.50474123148577
C           -2.11411497370144        0.19950945986827       -5.43812393724870
C           -2.25685164788202        1.54553153999422       -5.78686092909685
C           -1.47799363889360        2.52941809294080       -5.21386471126965
C            0.55379048016032        4.25211030250704       -3.55161021149671
H            0.05311240210972       -1.11820716685518        1.07192344014822
H            1.76500365063907       -1.17492269581294        0.71153051910459
H            0.66036767168808       -2.18371350825102       -0.22630329481678
H            2.05114599250443       -0.60943534418647       -2.21911184878693
H            0.43479996200246       -1.29231130536764       -2.48876576486403
H            1.81227865160847        2.22792663300321       -2.07436322075341
H           -1.08752919566977       -1.25955861029064       -4.25016549928244
H           -2.74714889444646       -0.53268714337355       -5.91315778698250
H           -2.99566019506549        1.81839053233568       -6.52312263548347
H           -1.59003117180685        3.56597711189514       -5.48536427483918
H           -0.36825042779836        4.74947742486363       -3.24717457236156
H            1.35219073622261        4.53828859258374       -2.87102107477384
H            0.80837788995721        4.57415778612570       -4.56222096845431
