51
 energy: -54.168190498481 gnorm: 0.000441634334 xtb: 6.7.1 (edcfbbe)
C            1.04348960748144       -1.12027868445661        0.37283906736562
C           -0.10313262202731       -0.70557083481685       -0.54738189291165
C            0.18452777591565       -1.15130759797481       -1.98878798885227
C           -0.00221508881722       -2.64999131818404       -2.23401464347727
C           -1.46489668503176       -3.08950375895204       -2.18682430626910
C           -1.65479070305221       -4.56823140737249       -2.52973316325203
C           -0.98497960335434       -5.54951415493395       -1.56471807597008
C           -1.40307492392358       -5.40851484005571       -0.09920121511095
C           -2.89890790840792       -5.59125974890085        0.16427455434040
C           -3.40344928479086       -6.98272304094931       -0.19573272316798
N            0.79054744230369       -1.00636695888957        1.84430343635568
C           -0.21816588355446       -2.02074267295863        2.26225853687395
C           -0.40191940172713       -2.11105040346278        3.77249991101323
C            0.92468987411554       -2.42747521199659        4.45324339516401
C            1.95828963190356       -1.37893268005198        4.05836691385434
C            2.08041452776209       -1.29099927286886        2.54109860240511
C            0.33082068309918        0.35711706856647        2.15876996297208
H            1.91535077142359       -0.50422429940855        0.14058213996645
H            1.30441946288966       -2.16011325625067        0.16736237942815
H           -1.04616391781158       -1.15010651641881       -0.23368919230891
H           -0.21688146000811        0.37858703963140       -0.54173198861207
H           -0.48901493856163       -0.60782113405851       -2.65211260828091
H            1.20413400369748       -0.86327158206957       -2.25223510923094
H            0.39317318790391       -2.88150115835257       -3.22395041479426
H            0.58064286722851       -3.22730927035232       -1.51474201536251
H           -1.89275721298152       -2.89531111302107       -1.20193713803297
H           -2.02956002841830       -2.49584989532109       -2.90858339346284
H           -2.72454157156265       -4.77727574055258       -2.56682810900319
H           -1.25565159194039       -4.75071268709504       -3.52945636807937
H           -1.21371513027854       -6.56118244676307       -1.89990394830688
H            0.10003188147035       -5.43684670271204       -1.62693689411965
H           -0.85488272675817       -6.15425167363824        0.48245382542118
H           -1.10166895890294       -4.42322159058221        0.27019933728683
H           -3.08181949646487       -5.41543267418030        1.22809127145859
H           -3.46776880031575       -4.84407628067934       -0.39125863523323
H           -2.81877711086271       -7.74461807218634        0.31455092232089
H           -4.44284500152943       -7.09270324867375        0.10282812570732
H           -3.34060003884610       -7.15830836626086       -1.26577895467239
H            0.11942298829326       -2.99110987295522        1.89023187314251
H           -1.16959243554836       -1.78023947741896        1.78744817978055
H           -1.12308953877456       -2.90420299511304        3.97067169930547
H           -0.82218477671305       -1.18777075409650        4.17176808023303
H            0.79798973175499       -2.43882716610505        5.53430821968994
H            1.26811564597467       -3.41763885974874        4.14900802770922
H            1.69884975411713       -0.41224999936307        4.49057225642551
H            2.93796474011179       -1.65021548090818        4.45218395095168
H            2.79426909713554       -0.51195188137849        2.26684188595059
H            2.45150461144584       -2.24641560148506        2.16320167136416
H            1.03339320084289        1.08334492067130        1.75393382399876
H           -0.65006980086029        0.53109739125769        1.72338990015228
H            0.26242515501218        0.50073596386171        3.23280682793098
