36
 energy: -41.569122233094 gnorm: 0.000317069875 xtb: 6.7.1 (edcfbbe)
C            1.00456899969012        0.01427561804360       -0.17624395209497
N            0.46535498344934       -1.15872060707350       -0.88585311014517
C            0.68448656492157       -2.41956370969829       -0.10115858244955
C            0.41656877671929       -2.40389471811331        1.40512659950092
C           -1.03634893905268       -2.34720794443044        1.88585824491970
C           -1.92550107460690       -3.46007326808525        1.31373717327588
C           -1.29663332899412       -4.82232234219854        1.44928118012004
C           -0.99152626080745       -5.58211022257894        0.32778831108226
C           -0.40070679277102       -6.82795025775876        0.45421398286575
C           -0.10361157698627       -7.32865465166469        1.70916967618150
C           -0.41254027462352       -6.58373637097255        2.83541606962498
C           -1.00589725652022       -5.34134885866643        2.70583403586007
C           -0.96365858629030       -0.94221564151333       -1.17336090872139
C            1.17510403217625       -1.30117912835551       -2.17333704134414
H            0.41657472012553        0.22426812983653        0.71412145646054
H            0.97120616797086        0.88787429242916       -0.82543487618689
H            2.03850964036216       -0.16527399571976        0.11341797212404
H            0.08280477833001       -3.20556652884493       -0.55892918101803
H            1.73595082750831       -2.68511284914083       -0.23057034629335
H            0.82709116398412       -3.35197621934582        1.76213002267697
H            0.98902786256225       -1.61399420156221        1.89158404177708
H           -1.00392660156526       -2.45593218963653        2.97065757735126
H           -1.49265367409967       -1.37414278273251        1.69133702808349
H           -2.87186664643731       -3.44731407025373        1.85871370549575
H           -2.15921436607048       -3.27012625891240        0.26400673551734
H           -1.24187013045802       -5.21307629879637       -0.65919847684000
H           -0.17855476690133       -7.40855815215984       -0.42833148043021
H            0.35536506857424       -8.29967240021431        1.81025217059535
H           -0.19618858855628       -6.97470278768779        3.81776864435947
H           -1.25694657257213       -4.77412307578523        3.59010555401558
H           -1.09225970145331       -0.03174078959160       -1.75684362354231
H           -1.36263264309620       -1.77809343811482       -1.74472718227293
H           -1.52852449380945       -0.84558708296165       -0.25092201819513
H            0.97725963679692       -0.43980873543058       -2.80921347188379
H            2.24911562164115       -1.37126852764324       -2.01056003635834
H            0.84139343086007       -2.19912993466522       -2.69053589412042
