27
 energy: -37.757025734228 gnorm: 0.000180590185 xtb: 6.7.1 (edcfbbe)
C            1.67157130942539        0.52344850925192        0.59422364107765
C            0.33218597839207        1.23314829663090        0.41579634190759
N            0.50002727192145        2.43295114756265       -0.38949232193160
C            0.75943829006150        3.60842083130618        0.19876490045313
C            0.98824680726223        4.74465847362215       -0.53760197820033
C            0.95398801246557        4.69565185089988       -1.93878894975072
C            0.68023418750373        3.44903322144263       -2.52036472719653
C            0.46486591481842        2.34973610973078       -1.72654219791496
C            1.19238450938814        5.88367670850837       -2.75203227598770
C            0.52130438097562        6.07583736973970       -3.96320901863020
C            0.78725049386043        7.22651737167104       -4.69077626932475
N            1.65052480684823        8.14512057148746       -4.30147102539736
C            2.29224839577252        7.96896949644373       -3.16224182765924
C            2.10120168541405        6.86482525431795       -2.34476324783556
H            2.08345013388740        0.22040502478568       -0.36519950680387
H            1.52874324382951       -0.36547669490719        1.20093243549192
H            2.38962510368552        1.16809544304033        1.09509990060764
H           -0.37958748498337        0.57168087206529       -0.08156892550419
H           -0.07476250265554        1.51568957355271        1.38816189364732
H            0.77537982091786        3.62586604148331        1.27857810202547
H            1.17328701400329        5.67626798724651       -0.02730466872622
H            0.65516211335632        3.33936337655388       -3.59270392192669
H            0.25906889683115        1.37921036363765       -2.15349421233199
H           -0.21695939021682        5.37061855976272       -4.31067781108576
H            0.28636448058597        7.41878585985190       -5.62924654404411
H            2.98963533789146        8.74851968529525       -2.88921445749056
H            2.67387118875754        6.75355869501665       -1.43769332746790
