123
 energy: -144.287336278758 gnorm: 0.000543654160 xtb: 6.7.1 (edcfbbe)
C            0.08185214301985        1.52892416627382       -0.50099679713732
C           -0.28726244350061        0.37882562747491        0.03473994355146
C           -1.42310268233511       -0.42915130252895       -0.52069564109213
N           -0.99717567371419       -1.75161940418564       -1.09061859609121
C           -0.22378411020023       -2.56783497334567       -0.10135380827674
C           -0.77059088934444       -2.69962875958263        1.32457912201069
O           -1.84840138252206       -3.61365635621358        1.46600051863159
C           -3.08228364513212       -3.09957093149423        1.71502375267514
O           -3.31118507583938       -1.92543051305084        1.58407671471242
C           -4.03196405803639       -4.17037936260512        2.14232881707861
C           -5.47913399105665       -3.88843282592993        1.73305512031978
C           -5.69195566729290       -3.82254949111062        0.21955066073959
C           -5.22078271150119       -5.05478871274410       -0.55776076384358
C           -5.81996749152249       -6.37994415690296       -0.08034163465225
C           -7.34574624314077       -6.45948737356597       -0.14681577645879
C           -7.94129553155352       -6.32163244024255       -1.54909003699740
C           -7.45384257809215       -7.35812233375118       -2.56414165225255
C           -7.65999056532606       -8.81633466055508       -2.14932874034600
C           -9.10878141820745       -9.20575625216026       -1.85120169627458
C          -10.07845503703665       -9.03339795173195       -3.02140181383062
C           -9.73160296323847       -9.84155169242129       -4.27323352011773
C           -9.62223236081291      -11.35281557961645       -4.05974668371911
C          -10.88120691402016      -12.02004609536051       -3.50434421591864
C          -12.08387897543661      -11.90230703720588       -4.43258026908051
C           -2.17589786328880       -2.55549140112462       -1.53961638268721
C           -3.27102172157324       -1.87182677727454       -2.36470628010239
O           -2.93407291098065       -1.64391797135465       -3.72503140154400
C           -2.66959618159382       -0.37586697561673       -4.11126130023571
O           -2.50386993126352        0.50924523693054       -3.30855222682311
C           -2.59468330337412       -0.25235993135816       -5.59786070817184
C           -4.01022692302998       -0.27356417767945       -6.20502118233044
C           -4.94980103210622        0.77766276285286       -5.61240778417237
C           -4.44589938387406        2.21937555233791       -5.70474469474188
C           -4.16197247252717        2.71413854512082       -7.12382880889179
C           -5.36566201974400        2.68324703042184       -8.06803813212534
C           -6.57781962046642        3.48829311246274       -7.59526097386410
C           -6.30779496795906        4.97175126177703       -7.33636005719535
C           -5.78306508486225        5.75303694689762       -8.54235848925494
C           -6.70229502589228        5.74713110008999       -9.76516884244399
C           -8.10436813008621        6.30866253313476       -9.52194697265745
C           -8.14410868392920        7.75166637659604       -9.01557044731041
C           -7.47802521284982        8.77852904208613       -9.93374592610785
C           -8.07093149252958        8.86642055920759      -11.34080549386899
C           -9.53320942115411        9.29529703139865      -11.35122183052603
C           -0.09651033440926       -1.49784272117731       -2.23265985425725
H           -0.39783126062689        1.92527052449288       -1.38103706664251
H            0.86437725904421        2.12837782299219       -0.07056294633210
H            0.19271512441022        0.01786290204882        0.93328968435528
H           -2.17894170631498       -0.61633711771390        0.24788638887931
H           -1.87375041952726        0.14864838984530       -1.33090961253452
H           -0.10592856082492       -3.57202800977262       -0.51589659977747
H            0.76511253832866       -2.11533745880097       -0.01357868138128
H            0.04077702501541       -3.11267601195986        1.93212553784924
H           -1.07118828129339       -1.73472530809833        1.74242397901500
H           -3.67602102326439       -5.12959915479991        1.76745459979523
H           -3.97414594877787       -4.20682886956476        3.23462329323410
H           -6.11232046361561       -4.66450504605006        2.16070546272930
H           -5.78320839048592       -2.93285327521448        2.16302410147856
H           -6.75652688021959       -3.67424676117127        0.03750427759443
H           -5.17708133917207       -2.93870556645429       -0.16903000367647
H           -5.47453806141277       -4.91117336201644       -1.61011023438700
H           -4.13027274316167       -5.13258120245856       -0.50067020189635
H           -5.39505076094188       -7.18049665873447       -0.68801217294269
H           -5.51254440780601       -6.56637513180419        0.95054297726839
H           -7.64890867128004       -7.41933776229081        0.27367321005989
H           -7.77926847951561       -5.68404593410051        0.48810262759586
H           -9.02635240867297       -6.39453395549320       -1.46094248038908
H           -7.72266187253720       -5.32559405593629       -1.94240448850233
H           -7.97410324513690       -7.17806982364153       -3.50672933814395
H           -6.38857131612491       -7.20520640873888       -2.75637934280415
H           -7.27636301053647       -9.45270879144762       -2.94902161407603
H           -7.05995312631424       -9.02738914296498       -1.26115691903448
H           -9.11888099545733      -10.24907719754291       -1.53075614141548
H           -9.47729234044756       -8.61248135580865       -1.01160948314547
H          -11.07541000511069       -9.31663711793827       -2.67875788330741
H          -10.12710741768650       -7.97786148148841       -3.29866534757488
H          -10.49509176167541       -9.64259946458514       -5.02761565274886
H           -8.78269271639815       -9.48583925384743       -4.68134191538559
H           -9.38177700980719      -11.81246517943876       -5.02181373878200
H           -8.78944387236683      -11.56294422777521       -3.38541975438604
H          -10.66100445723486      -13.07873185515199       -3.34693224320336
H          -11.12962425795150      -11.59336542168005       -2.53130927620926
H          -11.84293767520546      -12.29236442298909       -5.41900767245062
H          -12.92216811511741      -12.47041243331539       -4.03606211567176
H          -12.39830718982230      -10.86736968314931       -4.53853599992381
H           -1.79645804533194       -3.40219767855323       -2.11743471221227
H           -2.67326225292119       -2.93859632776191       -0.65083813234882
H           -4.11272582756927       -2.57117887974545       -2.39181167150923
H           -3.60679729764030       -0.93687114799047       -1.90720557737375
H           -2.09357297114886        0.68212286724764       -5.84598605788739
H           -2.02987235175461       -1.09447368168117       -5.99958674391383
H           -3.91417952598490       -0.11915442824791       -7.27929022034538
H           -4.44304831387748       -1.26350999234624       -6.04703627466033
H           -5.90924867329092        0.69725850615601       -6.12485072580097
H           -5.12842954480148        0.54710813796272       -4.55789977891695
H           -5.19704743664587        2.86477129847054       -5.24767165111210
H           -3.53754762798923        2.32287347506150       -5.10724956445649
H           -3.79139671493300        3.73806409415067       -7.05417088908294
H           -3.36192650125556        2.11792201152448       -7.56945705260160
H           -5.04226241251715        3.06300541239572       -9.03875347608052
H           -5.68111990792868        1.64850682958897       -8.22179366591396
H           -7.36041353471512        3.39430646762767       -8.35020009342282
H           -6.97031595374140        3.04648729646814       -6.67630054550592
H           -7.23700748293008        5.42923365470114       -6.99152506555077
H           -5.58507862262274        5.07168997408663       -6.52311181072915
H           -5.61235840925612        6.78465532000238       -8.22884101726831
H           -4.81365733871138        5.34818762804605       -8.84162941907237
H           -6.21830910445418        6.32408798880046      -10.55564054197767
H           -6.80344657104492        4.72457295782303      -10.13576140531804
H           -8.66329932817549        6.24193803657778      -10.45738996023525
H           -8.62460427097681        5.67842023396346       -8.79703523722192
H           -9.18885296459430        8.03130645342946       -8.86697672171689
H           -7.65999547274356        7.80414137110379       -8.03788238681296
H           -7.56260879837091        9.76001435085800       -9.45967103382916
H           -6.41310243273987        8.55157998509793      -10.01722689185248
H           -7.48672933203976        9.59467732742370      -11.90892854975274
H           -7.97010647296775        7.90512930694938      -11.84738185979715
H           -9.65919192748308       10.23006179502644      -10.80911967008251
H           -9.87504442625928        9.44385034952962      -12.37302780645026
H          -10.16658857705723        8.54175625540515      -10.89034110754321
H           -0.61310929075342       -0.92741391827756       -2.99781943650739
H            0.75925893287851       -0.91183299933039       -1.90156954749261
H            0.25195702143578       -2.43632478111216       -2.65990613413224
