31
 energy: -36.588484723024 gnorm: 0.000459606669 xtb: 6.7.1 (edcfbbe)
C            1.05645252375317        0.35176856924515        0.14684600281701
C            0.55725492877686        0.73509053854313       -1.24077971252627
C            1.07510673612022       -0.18653136500090       -2.34745308142530
C            0.68855557964142       -1.66039820125806       -2.19545309578907
C           -0.81570610984840       -1.93079505484765       -2.14653532980165
C           -1.55979199014199       -1.55778109351024       -3.43489362731645
N           -1.14986498961133       -2.39543430891688       -4.53893271058315
C           -0.16012823174588       -2.12046774135175       -5.43076265040722
C           -0.05209411274764       -3.19356221911570       -6.26322709278516
N           -0.97672274244608       -4.10970513103550       -5.86343622502052
C           -1.62555385783273       -3.60628922950496       -4.81703940840282
C           -1.19466262762437       -5.39363143945694       -6.47305811442111
H            0.64881897294860       -0.60301531363495        0.46952394221327
H            0.75575012484809        1.10488670646505        0.87006539957553
H            2.14163954783802        0.28631290604726        0.15624268306267
H           -0.53465163798405        0.75649696348806       -1.24473987615399
H            0.89744595741336        1.74732346527053       -1.46731262902901
H            0.72871811671704        0.19900040955014       -3.31016200167050
H            2.16541890660498       -0.13289632096372       -2.35791185190893
H            1.13991313852689       -2.22951010252009       -3.01358193059975
H            1.12329460701906       -2.03895027400987       -1.27075358282277
H           -0.98210401220265       -2.98945772760254       -1.93512368173753
H           -1.26071403200219       -1.36007939568537       -1.33302975920067
H           -2.63470914925115       -1.68120539489952       -3.28845589484566
H           -1.35677222975656       -0.51936094351041       -3.69776751993217
H            0.38654248220131       -1.19974720338390       -5.42290393810243
H            0.60345264569504       -3.36048074320924       -7.09339752165056
H           -2.41760684329280       -4.09655198079694       -4.28464060194631
H           -0.33375781062061       -6.04226204634319       -6.30293357426738
H           -2.08027541406683       -5.86130412548602       -6.04863753517803
H           -1.33183847693253       -5.27739220256115       -7.54826508014379
