42
 energy: -56.327669473145 gnorm: 0.000242870579 xtb: 6.7.1 (edcfbbe)
C            2.92511930579866       -0.07256071427844        0.46362749237488
C            1.47052237202341       -0.04451132920534        0.12596630461201
C            0.83255640291248        1.15825436297618       -0.15359324136497
C           -0.50601864302986        1.17528903275073       -0.47611940162348
C           -1.25362752708246        0.00306807421347       -0.52739222498608
C           -0.62843574502851       -1.21739689783429       -0.23987474307662
C            0.72545382513815       -1.21460737513275        0.07534901728223
N           -1.40723181057293       -2.47698506642260       -0.28636466076337
C           -1.91669386971992       -2.66474474032290       -1.69911680567301
C           -2.65894726880935       -3.94512340541023       -1.90418169655864
C           -3.99316645589302       -4.00865460011947       -1.91312945332864
C           -4.80927496144053       -5.18942343276287       -2.13025874903137
C           -6.18878144262306       -5.02665696613579       -2.28591065409206
C           -7.01009412058819       -6.11470918831519       -2.50677914181277
C           -6.47093438011424       -7.38952654327028       -2.56670681072743
C           -5.10582535873043       -7.56812555095420       -2.40412523385953
C           -4.28122520456681       -6.48190280615075       -2.18921526299695
C           -2.53526942037962       -2.38916963869439        0.66357213737335
C           -0.61176452474858       -3.66115670365651        0.08262992564340
O           -2.57644383578513        0.04969235252100       -0.85485607712956
H            3.51492312658398        0.22935490236769       -0.40066732205898
H            3.14044734500978        0.62903380793514        1.26668946962394
H            3.24542552718129       -1.06405316330941        0.77003904661016
H            1.38744022732863        2.08217546455765       -0.12042370155284
H           -0.99719959634857        2.11232801307574       -0.69636577479515
H            1.24450780380732       -2.13164906070982        0.29304175550813
H           -2.56912464856967       -1.82018469254597       -1.91858438927466
H           -1.04120216852107       -2.61933919019461       -2.35139439181517
H           -2.06343726541113       -4.82363060513718       -2.09894225740178
H           -4.55585773768060       -3.09386054822286       -1.76293250657021
H           -6.61403457664444       -4.03420571341661       -2.24183396162776
H           -8.07226436863406       -5.97019020537225       -2.63144312789681
H           -7.11086286245312       -8.24130917225369       -2.73691964509196
H           -4.68356581403702       -8.56054070860546       -2.44577891879445
H           -3.22177422997788       -6.64338756538312       -2.06155454880976
H           -3.12215894352981       -3.30454217654602        0.61744390029830
H           -2.14881574318167       -2.25274742530868        1.67195744357911
H           -3.17476889893499       -1.54849414212921        0.40928039820345
H            0.19449128829284       -3.81838248008661       -0.63114242305236
H           -0.20525097500563       -3.54810378023236        1.08561615544434
H           -1.26250827952863       -4.53335337736465        0.07162902175617
H           -2.84035654650608        0.96369295508709       -1.02425494253492
