80
 energy: -138.301958595205 gnorm: 0.000723330971 xtb: 6.7.1 (edcfbbe)
C            1.38261624820035        0.64129704648782        2.60218594568577
C            1.05193931871200       -0.24245622039544        1.40292598957960
N            1.42890407198052       -1.61653065723942        1.63669155909874
C            2.67433839665560       -2.16420416313056        1.49435820381033
C            3.76831855922341       -1.41606186707078        1.05864017149691
C            5.11310803829359       -1.74176118776379        1.08246206185465
C            6.07524562993969       -0.91565081300699        0.52389433311718
C            7.46064790079985       -1.08067870468497        0.49439922410341
N            8.25312833930737       -1.85540617794359        1.28878321298211
C            7.87235788907763       -2.67112968262423        2.41539126274897
C            7.70202832245798       -4.13488413654691        2.01664098158569
C            9.55739511056534       -1.73098844341470        0.87405488742541
C            9.56976438145831       -0.81184929056561       -0.18771903380126
N            8.26932255126869       -0.41181125094710       -0.38815731098387
C            7.90134794818992        0.50159769576165       -1.44113133616242
C            7.94050163619259       -0.13094693461284       -2.85182262578846
O            6.71837460736316       -0.67874235368962       -3.27351304455255
C            6.39303081157863       -1.98157937282009       -2.84472619566220
C            7.36632977149235       -3.06001239707967       -3.35080947380534
C            8.47962692504562       -3.32439617899133       -2.36887409943474
O            8.33119633402324       -3.39452793511239       -1.17330412525190
O            9.65911616729455       -3.48052676928854       -2.96230412431354
C           10.74589711389623       -0.47266571645399       -0.83452456630926
C           11.91491584787115       -1.07988550760908       -0.39619638516858
C           11.90338858347780       -1.99708159665575        0.66516857634032
C           10.72366255295826       -2.33160094209968        1.31541169558830
Cl          13.37455804611642       -2.73163830575991        1.17144705434253
Cl          13.39784476641771       -0.70087297308468       -1.18201322425219
N            2.60685127829958       -3.47883837677063        1.86752354568723
C            1.31598832522614       -3.75426894143857        2.27327594089060
C            0.57504503039031       -2.56871005690078        2.13953815084927
C           -0.76427554765056       -2.51220615047976        2.48779730925979
C           -1.35293154941780       -3.67401847073514        2.96404502775602
Cl          -3.01276315954701       -3.64971617522777        3.40754064961051
C           -0.61544283759996       -4.86112658684232        3.09020708887943
C            0.72902480574227       -4.91538808433939        2.75148448184343
Cl          -1.38349949405878       -6.28185187232450        3.67653024572690
C            3.57450487476633       -4.52286073721418        1.63576137591849
C            3.89704676692168       -4.70311041964900        0.13538149787148
O            2.77767620819532       -4.64451104498686       -0.70944544631862
C            1.81605428776875       -5.67996237059781       -0.61894402929980
C            2.35229159781049       -7.08276029252137       -0.92110598391708
C            2.88566851863790       -7.79164508507916        0.30104136651148
O            2.67231318167209       -7.46756306522490        1.44248121626966
O            3.62294929114121       -8.84762959635342       -0.02396918319700
H            0.86626311443809        0.28296701714725        3.48906404738953
H            1.06650713219984        1.66136102766800        2.40585150962715
H            2.45188897604093        0.63884227851197        2.79853236219234
H           -0.02209436212772       -0.22800188797562        1.21159882782679
H            1.55477133795129        0.12185919504762        0.50462008151227
H            3.52791712114438       -0.43657445455523        0.67348078695224
H            5.41963845404743       -2.66804127884656        1.53111040318172
H            5.69921421885501       -0.06090166671885       -0.01982041201021
H            8.66426727327443       -2.58345354836301        3.16441834447823
H            6.95731655766114       -2.26128936471193        2.84724437254727
H            8.65313217168406       -4.54501454634027        1.69062897295982
H            7.34322454769106       -4.71319960502954        2.86362540585086
H            7.00638225473379       -4.23215265298805        1.18710773993048
H            6.90106354663492        0.89668647245336       -1.26697275228890
H            8.60912552619743        1.33392176289389       -1.41165616348189
H            8.14519005081221        0.66377724429455       -3.57382183747742
H            8.75227578469158       -0.86614147063373       -2.90129017006676
H            6.32791483329552       -2.04374370478662       -1.75008576646799
H            5.40039220456827       -2.15130710186077       -3.26566573167242
H            6.81841529460349       -3.99716089449425       -3.46419432167545
H            7.78153178141369       -2.78488677792129       -4.32012882929742
H           10.36279874917143       -3.69965162605672       -2.33000241813150
H           10.77791320864340        0.22915943599895       -1.65043912795230
H           10.74156568507992       -3.04070135807560        2.12514806004375
H           -1.34867715752444       -1.61163604130164        2.40646571642220
H            1.26504356047332       -5.84398312843840        2.86437290665115
H            4.49655428530494       -4.33391681255872        2.18858527412033
H            3.14488978831658       -5.44960200563245        2.01641047807816
H            4.53230707206900       -3.88927613276936       -0.22327780887059
H            4.44414117280620       -5.64918049901582        0.02447101163282
H            1.33181208405535       -5.68931013726957        0.36506163904741
H            1.07499279426527       -5.40022960722869       -1.36993532154854
H            1.53465773366531       -7.69924230364073       -1.30087939391066
H            3.12391773999120       -7.05637098392911       -1.69178049980622
H            3.91069801572891       -9.33967267984009        0.76254974562888
