86
 energy: -89.964235038958 gnorm: 0.000668364800 xtb: 6.7.1 (edcfbbe)
C            1.33566774760746       -0.37087538095942       -1.44341168445829
C            1.27689698760709        1.05380323575780       -0.90442630117344
C            1.86976383771275        2.09186332943070       -1.85941835884517
C            1.17320126593002        2.19379705396306       -3.21799892156446
C           -0.28878616329025        2.62301565014477       -3.10311772208974
C           -0.92502073610965        2.96749613506320       -4.45077256232767
C           -1.00210481334441        1.80375756832407       -5.44437345340252
C           -1.81037268281630        0.55265146564889       -5.07421965279428
N           -3.30767672139393        0.63583211879606       -5.04438455288273
C           -3.82125158110332        1.59098706593476       -6.08667400154205
C           -3.41608793189367        1.31034932137330       -7.54272581325513
C           -4.61123228900648        0.98685469444367       -8.44865187378382
C           -5.57267494302929        2.15845967810028       -8.66397283086574
C           -4.95449147404535        3.39348732910871       -9.32348613048562
C           -4.31335728386621        3.14739904271296      -10.69128883892256
C           -5.26148622325217        2.58845410634888      -11.75385499630857
C           -6.42081422232260        3.52419874723410      -12.07566020453534
C           -3.92926608527330       -0.69543323996520       -5.35929729566791
C           -3.31981179003441       -1.97558280365736       -4.78503737845685
C           -3.93074159505341       -3.20348249595064       -5.47468498524091
C           -5.41863690921161       -3.39505079887908       -5.18510750508800
C           -5.98028527938224       -4.67559869527912       -5.80813309247501
C           -5.40824449887291       -5.98108688601570       -5.25088806404289
C           -5.58789028533399       -6.17719037961144       -3.74429333013587
C           -7.04864683966745       -6.19647902869578       -3.30942707890965
C           -3.79072594247783        1.18086713542622       -3.72487907389321
C           -4.00117596321562        0.24479831261600       -2.53026372819045
C           -2.75347424163666       -0.23951830829422       -1.79975537155915
H            0.71577942159135       -0.48939699020089       -2.32996864181032
H            0.98493871536754       -1.07269879395412       -0.69068223892125
H            2.35777308848042       -0.63356209083291       -1.70437842737376
H            0.24479057227498        1.31498305687322       -0.66130095489472
H            1.84306116248857        1.09531144001237        0.02754798554400
H            1.83861915423874        3.06924250570874       -1.37312549007807
H            2.91902164991395        1.84486589635854       -2.03225702480568
H            1.70968256087354        2.92974718212268       -3.82076734029527
H            1.24767630931354        1.23283598440402       -3.72890651659612
H           -0.85794711128455        1.83706464356586       -2.60736727874841
H           -0.34020535895447        3.51102944249414       -2.46971762674145
H           -1.90998039969322        3.41319051368509       -4.28838263228007
H           -0.31497755179169        3.74000069817910       -4.92384381660831
H           -1.32448861075584        2.19177241090453       -6.40847408226314
H            0.01679990151533        1.43902879940264       -5.59015035859930
H           -1.55038863683507       -0.20331195955577       -5.81648824878855
H           -1.48810384753636        0.19471588443829       -4.09840539803422
H           -4.91108817407350        1.56011818842596       -6.02593609933425
H           -3.50304217209808        2.59026358657324       -5.79130716765286
H           -2.91766005565517        2.18802542783184       -7.95367913532933
H           -2.70088122703901        0.49008617397488       -7.60356545898831
H           -4.22398516362760        0.66936122596778       -9.41679077428095
H           -5.17820051647326        0.14735584792689       -8.03739067171230
H           -6.39542721518174        1.80194119778241       -9.28419581525824
H           -6.00732575118638        2.46563159735545       -7.70863258351275
H           -5.74167263447521        4.14019204440163       -9.43258808189320
H           -4.20160504122953        3.82852566169768       -8.66070009901643
H           -3.91699991453808        4.10040687095853      -11.04902639320969
H           -3.46438420755765        2.46759881612214      -10.58430036145816
H           -4.68209784662288        2.42137517940922      -12.66465648683872
H           -5.65195049457580        1.61886706987292      -11.43765999169208
H           -6.04911696767356        4.50841537391244      -12.35259533583549
H           -6.99835914218982        3.13115338016743      -12.90861629744179
H           -7.09022744090355        3.63439149103136      -11.22567141558545
H           -4.97494026074239       -0.62470031476768       -5.05669591799830
H           -3.90342051933710       -0.80472879405099       -6.44356543544831
H           -2.24371516537524       -2.00504207187460       -4.95396570886632
H           -3.49506536928005       -2.06922085995557       -3.71641948976323
H           -3.77595293646936       -3.13828913142386       -6.55419441836867
H           -3.38923566241874       -4.07955555424008       -5.11886014514709
H           -5.57959399229169       -3.41341001174797       -4.10612279232826
H           -5.98762706463796       -2.55555056302420       -5.59250172814325
H           -7.06194400337989       -4.67658433407126       -5.66826676861054
H           -5.79342298394508       -4.65190947637558       -6.88460779998619
H           -5.90501353701737       -6.80467801231805       -5.76768129129946
H           -4.34491608804873       -6.04927160058372       -5.49072831844941
H           -5.12911635007611       -7.13071967033119       -3.47440748374163
H           -5.05274897121848       -5.39822095166631       -3.19653799222668
H           -7.60282681235254       -6.93986969709012       -3.87729168412505
H           -7.12325494482904       -6.44881318223807       -2.25435453746394
H           -7.52012295416337       -5.22804207541408       -3.45858444355371
H           -3.09610682494821        1.96555775696897       -3.42962908882184
H           -4.76030649947231        1.64477968018127       -3.91872293845629
H           -4.57829808379517        0.83993247181904       -1.81769231347013
H           -4.63405203584766       -0.59824538878728       -2.80256912594403
H           -2.15117027173262        0.60226343867199       -1.46852714518747
H           -3.05519260027390       -0.79048025654559       -0.91275825470106
H           -2.13529646496615       -0.90271313128775       -2.39843011472769
