61
 energy: -68.225747466916 gnorm: 0.000540744287 xtb: 6.7.1 (edcfbbe)
C            0.96771890543054       -0.62358534929874       -0.00547220723540
C            0.84233444622555       -0.59735322125667        1.51302990674404
C            1.27252849587372        0.73367243461249        2.13142207647921
C            0.44329483918131        1.94551833728564        1.70023539044056
C           -1.05627324008671        1.83862433862908        1.98408727288382
C           -1.42038059445925        1.59738794028438        3.44997967474191
C           -0.94986584465065        2.68302207276223        4.41944337129702
C           -1.50810626725849        4.08115462794392        4.14604077676401
C           -3.03530698598131        4.17821423389825        4.14272100188418
C           -3.71654050097741        3.68206324419309        5.41961767232982
C           -3.29355604461229        4.40541717551513        6.69929298063768
C           -3.59954362510673        5.90409843305663        6.72410128126256
C           -5.07748915826399        6.26396917208870        6.55002989186736
C           -6.02431738710147        5.59541920323698        7.55054711184355
C           -5.71349902896509        5.87947995909264        9.01987459272383
C           -5.88680271609824        7.35096484634223        9.41558742301138
N           -7.27143492354063        7.74917812871125        9.31570038527238
C           -8.22747688372934        7.52468291647987       10.25760470986336
C           -9.41108815481494        7.96742867199251        9.75022468911078
N           -9.16000741900502        8.45033721364767        8.50191730492032
C           -7.85965975672826        8.30347462324670        8.26004204814166
C          -10.13991991916056        9.01859714497618        7.61572167894147
H            0.27734410438294        0.07652555619964       -0.46887695074235
H            0.74457308307722       -1.61824487079867       -0.38458666753612
H            1.97915769863212       -0.36148650015684       -0.30797573130543
H           -0.18694993731356       -0.82383710121542        1.79671593527277
H            1.47420386696825       -1.38450056182995        1.93203137325922
H            1.23836165901209        0.64048158882006        3.21908506711823
H            2.31351286249298        0.92336857325680        1.85714087181039
H            0.84411847452733        2.82861140968814        2.20299093303806
H            0.57482571594740        2.10447561299408        0.62819482067414
H           -1.53587892145849        2.75717073504572        1.63793850744936
H           -1.47401569280944        1.02138503831699        1.39287267569740
H           -2.50575034859314        1.49444301682118        3.52047621283098
H           -0.99054328856196        0.64717112763601        3.77224173353837
H           -1.22056456113074        2.37706156208884        5.43280288990464
H            0.13945884035657        2.74250941724062        4.38776143182884
H           -1.10241184922257        4.76409859620471        4.89644399006158
H           -1.14667528555256        4.42720504222317        3.17598728293221
H           -3.31234945033913        5.21974886760114        3.96127255614616
H           -3.42652015808837        3.59671918689261        3.30603861442626
H           -4.79804626047710        3.76947465046231        5.28881162468529
H           -3.49905982457868        2.62071751428264        5.54706782197837
H           -3.77893985006469        3.91745828143506        7.54801005827146
H           -2.21887976772752        4.28175987290029        6.83728315634956
H           -3.22878328984278        6.31772881726824        7.66546254059575
H           -3.04153643277079        6.39323958334003        5.92469244926412
H           -5.17195538483606        7.35244326386725        6.60795926892061
H           -5.39519503083877        5.97393448570284        5.54783331765158
H           -7.05189968242755        5.89894635346560        7.32484531256164
H           -5.97775180078187        4.51670266471732        7.40469116461220
H           -6.36100676019781        5.26488062335499        9.64886712863984
H           -4.68368465581249        5.59881969878706        9.23391488811341
H           -5.56369713066781        7.49686258719136       10.44798020933218
H           -5.28949678733186        7.98989533766399        8.76443194929143
H           -8.00875502874290        7.08096829777420       11.20737050918231
H          -10.39003471748856        7.97144990080981       10.18424756957809
H           -7.36082017267278        8.59712294259040        7.35668587126045
H          -10.63355542007285        9.86365245724571        8.09628109827971
H           -9.65953633063956        9.35959221269677        6.70178731102212
H          -10.89634072053332        8.27405800996354        7.36463217008359
