36
 energy: -38.339252772371 gnorm: 0.000229790328 xtb: 6.7.1 (edcfbbe)
C            0.33946684576692        0.41940271878829       -0.57259175951207
C            0.35131137520694       -1.05302020378288       -0.18036553894652
C            1.24081698781363       -1.35078902978986        1.02809551287963
C            0.85359738668379       -0.61903437940116        2.31633720916259
C           -0.58057587479694       -0.87151461866455        2.79860647460533
C           -0.88688021520746       -2.33452348455971        3.14426159011866
N           -0.95857366228102       -2.66733046470510        4.60004546260567
C           -2.13373001074784       -2.02776505754892        5.20856197453568
C            0.29632604107351       -2.32369918277637        5.31582136294965
C            1.29337447426411       -3.41335129045426        4.92570277911119
C            0.42113211081028       -4.64314993411398        4.61277634777587
C           -1.02009625097781       -4.14721942496493        4.75594877204755
H           -0.13639456596441        1.03394216859252        0.18770919572544
H           -0.20893287199127        0.55205556451485       -1.50115413251197
H            1.35384392084429        0.78000877271288       -0.72332936968715
H           -0.66961393375396       -1.39313854439900        0.00737822482558
H            0.73176575252204       -1.63535438469822       -1.02137896798275
H            1.25276707239160       -2.43190214883065        1.19277209546457
H            2.26355784762820       -1.05890644375066        0.78317547812402
H            1.57235121411151       -0.89015611273367        3.09307465198180
H            0.95842613537772        0.45292212971174        2.14917254246397
H           -0.77917492916661       -0.21763226553203        3.64857627590395
H           -1.26135412440739       -0.55942488299970        2.00730831997267
H           -1.84937252475435       -2.62253940231135        2.71767138032594
H           -0.12199810433411       -2.96837806901579        2.69867181094344
H           -2.06862500543325       -0.94556387166635        5.12307227133836
H           -3.03992739648838       -2.36385452749365        4.70749811094539
H           -2.20046776984828       -2.28716368154018        6.26370619419819
H            0.09362802576274       -2.36068782159585        6.38742233393826
H            0.62905930733265       -1.32086981546501        5.05939567808754
H            1.87989085327130       -3.11854107314801        4.05699478306718
H            1.98990715608439       -3.60416588923116        5.73831587215071
H            0.61721997587148       -5.02073175355148        3.61077253351841
H            0.61088434513889       -5.45894970299555        5.30614242945083
H           -1.69994182497556       -4.58239006474606        4.02478803697885
H           -1.39926776283006       -4.36659382785224        5.75503406344254
