59
 energy: -88.634386693395 gnorm: 0.000503579572 xtb: 6.7.1 (edcfbbe)
Cl          -1.36841663026321       -0.41792556234174       -0.43235101571655
C            0.25857068613377       -0.26463017846269        0.15107776386953
C            0.88462111212052       -1.39275023257187        0.65969828992493
C            2.18066093008079       -1.30600923477187        1.13460832894101
C            2.85141327240256       -0.09462902124651        1.10141354639604
C            2.22378797417332        1.02428261868910        0.58578529628138
C            0.92160481020026        0.95894412165682        0.10134922030859
C            0.27608593220726        2.19710563944949       -0.47451197787878
N            0.25481295477752        3.28583774614923        0.47494844825379
C            0.97870438140491        4.43723847319135        0.37447118901967
C            0.65459671467699        5.20570256772071        1.44191439846859
N           -0.25909630307636        4.51182764705949        2.18565619152665
C           -0.49705651258362        3.34461432112306        1.57959248650537
C           -1.36789460468891        2.24579344393554        2.03536689498857
C           -0.93477145576088        5.09470081852882        3.32157616469099
C           -1.88448242779561        6.22974184961520        2.90338217045411
C           -3.32529651273326        5.82316828258649        2.49493143991313
C           -3.85659648452531        4.78291417580796        3.46827182763248
C           -3.86285543243417        5.07629119492437        4.83130316569570
C           -4.32997619529577        4.15711004986587        5.75203559989927
C           -4.79852544121241        2.92343939166237        5.32967692770061
C           -4.80053107155572        2.62267010493126        3.97994275199271
C           -4.33380007462395        3.54504468376545        3.05561253053723
C           -4.20412235760361        7.07508872554253        2.49662884196743
C           -3.77104521953379        8.22470718943203        1.84187827564656
C           -4.56152149184777        9.35911952966408        1.80474431157922
C           -5.80604506894694        9.36334253785880        2.41109364618481
C           -6.25760870020137        8.21830677778307        3.04189865241638
C           -5.46711965094889        7.08163457574569        3.07919568137828
C           -3.33367773341807        5.28088933787291        1.05256986423451
O           -2.33691465173525        4.86578844878152        0.49060658890030
N           -4.53738180124090        5.29267989431273        0.46015256695064
H            0.35628992122176       -2.33274563160789        0.68006900421686
H            2.66545572759554       -2.18606655123618        1.52603620826055
H            3.86332120455754       -0.02374762440322        1.46725131499033
H            2.75177591013287        1.96607108534485        0.54876488895339
H            0.83766145352912        2.53228492190041       -1.34977670043438
H           -0.74780350740715        1.97325822768321       -0.78298557299944
H            1.64859972825614        4.62772726720319       -0.43831777843021
H            1.00319710106385        6.17675307669704        1.72645648821918
H           -1.99493050254568        1.90680724848861        1.21231819995225
H           -0.76180164112678        1.39752184969505        2.35644787409864
H           -2.01084020285943        2.55354457518109        2.85384009913498
H           -1.47156125306293        4.32025369953598        3.86909458955975
H           -0.16608507262534        5.51005068395261        3.97896150625293
H           -1.96335237751047        6.92347842913011        3.74053824953283
H           -1.42498459296485        6.76337188298542        2.07159921762622
H           -3.52036660253552        6.04079796556899        5.17409671068889
H           -4.33373488099749        4.40781599154938        6.80160292353625
H           -5.16587289303785        2.20677583951995        6.04719937343217
H           -5.17016583114589        1.66816800462490        3.63723339397026
H           -4.35335018868118        3.28973847259545        2.00688383164763
H           -2.81395986643245        8.24111611074767        1.34319839982493
H           -4.20358862076593       10.24129425816314        1.29650613130584
H           -6.42102658954175       10.24910277348526        2.38473450728091
H           -7.23095296757863        8.20270973774805        3.50776206981226
H           -5.84400846413802        6.19819443481547        3.57261856808561
H           -5.34456079052829        5.68731177098784        0.91284505314395
H           -4.61512714707849        4.99813158133426       -0.50001862026311
