39
 energy: -60.800516284750 gnorm: 0.000174233393 xtb: 6.7.1 (edcfbbe)
C            0.54228651813508       -3.80576588374749       -0.04274063910372
O           -0.07655622775088       -3.75104986798474       -1.30849886328545
C            0.30447204810364       -2.81581455744189       -2.19846605159138
C           -0.39175406814004       -2.82307610540570       -3.41734074454410
C           -0.09233758114628       -1.90913566508154       -4.40473884880616
C            0.89980515225221       -0.96750000502172       -4.20129059526650
C            1.60492286539743       -0.94348246298977       -2.99383603902792
C            1.30668478409400       -1.87626536736652       -1.99075094742691
C            2.63349608846525        0.07850822167578       -2.85623926995820
O            2.93337883080789        0.87338922069897       -3.71892062778498
C            3.41792031242208        0.14126349652907       -1.50938429274733
N            4.14126605833583        1.37638977788587       -1.47999454477177
C            3.91938439271368        2.43185327832272       -0.64391970682486
C            4.63961002320452        3.48314587857719       -1.11634895888712
N            5.27758094157514        3.06308254696778       -2.24881511421585
C            4.95627651075884        1.78590774435355       -2.45338440890719
C            6.08975538812862        3.86172612177539       -3.09159752149923
C            5.98508308039139        3.71891955001761       -4.47039119831590
C            6.76579516488423        4.51136263357020       -5.29277200306143
C            7.64046964479510        5.43640088290343       -4.74494117469668
C            7.73861943296228        5.57275524498522       -3.36945499854611
C            6.96372350461692        4.78705972774927       -2.53472078682846
H            0.05122948075011       -4.61986513654385        0.48634833931949
H            0.39599941329609       -2.87520765395273        0.51445017411469
H            1.61106385790366       -4.02482902560365       -0.12695916955738
H           -1.16344181460425       -3.56393865028739       -3.55181772038593
H           -0.63454905894967       -1.92817604060260       -5.33668037371594
H            1.14524344827731       -0.24202560843887       -4.96045199573702
H            1.85490094588643       -1.87691927877434       -1.06345629418689
H            2.74243801486883        0.10195530666624       -0.65586902148885
H            4.10068558059749       -0.71304143427492       -1.48102340967055
H            3.28179063815612        2.36454612239679        0.21349726864597
H            4.72010865565185        4.48476303784830       -0.74760178997638
H            5.33661950137059        1.17497007420160       -3.24713895920990
H            5.27998083135211        3.01787857805197       -4.89004087073377
H            6.68393473526509        4.41011849136879       -6.36327010415511
H            8.24420519293880        6.05401263942809       -5.39069135535996
H            8.42042720398889        6.29105677406639       -2.94270151506143
H            7.05092050826881        4.87882739334261       -1.46297586678914
