27
 energy: -30.748711579077 gnorm: 0.000342764449 xtb: 6.7.1 (edcfbbe)
C            1.25456278987190        0.73750507310433        1.56096529595372
O            0.94910437740146       -0.18213718069696        0.52993329903810
C            1.05756464945969       -1.52620795049488        0.93078919931663
C            0.44229970682477       -2.45897865562780       -0.11664830257992
N            0.98053234778288       -2.35411643362092       -1.50591784562283
C            2.47287687507346       -2.29457896691587       -1.53947986375687
C            3.18764082575634       -3.50267907561551       -0.95337019065797
C            0.49714579493588       -3.51502534497785       -2.27773771250585
C            0.46052230235264       -1.12758081952500       -2.14694094577849
H            0.56896110682617        0.62005083377447        2.40480048243430
H            1.13651379573610        1.72819728377582        1.12946876231666
H            2.28327769578839        0.60754253506015        1.91117584802472
H            2.10866803507926       -1.77835083638262        1.13538151129423
H            0.49680654177500       -1.69117676533558        1.86362453461942
H            0.57766668049979       -3.48323024252193        0.23370171389966
H           -0.62790172097290       -2.25095562322062       -0.17335768234279
H            2.76814961857760       -2.18509664065674       -2.58516915220210
H            2.77066558866628       -1.38728758948591       -1.01272452192121
H            3.03134162425891       -4.39987305552030       -1.54554688629894
H            4.25499119793817       -3.29509547235041       -0.96127036935724
H            2.90076222126782       -3.70257366322741        0.07478342308193
H           -0.59117263645613       -3.52154702868646       -2.29858614614161
H            0.86433763795077       -3.45819411710279       -3.30095907005804
H            0.83854479863081       -4.44623781201615       -1.83234219862951
H           -0.62478324538622       -1.17175275318012       -2.21038369911008
H            0.73688644868136       -0.25841937718206       -1.55399233993205
H            0.86510494168308       -1.03042032137090       -3.15227714308276
