33
 energy: -38.690763449497 gnorm: 0.000718875047 xtb: 6.7.1 (edcfbbe)
C            1.04662456058877       -0.14402405704492        0.42549401947249
C           -0.24993294226638       -0.82709037621361        0.82774622344747
C           -0.26664366426970       -1.30872002885183        2.27606458260768
C           -1.58123451504169       -2.00077118191808        2.61520759279460
S            1.19378410844579        1.53453975637438        1.15647959598121
C            1.72423178084333        1.27294859070052        2.81271654158398
N            2.72934788726943        0.43929699439217        3.08206187215382
C            2.84298302588741       -0.29833241743170        4.32488801280556
C            3.80538156260089        0.18175157774838        2.14934877801527
N            1.11749412623585        1.99350445229040        3.74846190888209
C           -0.16734151575751        2.62277669161089        3.52673348320482
C            1.75269196320769        2.38304055788245        4.99225721992449
H            1.06060886943934        0.05628268509885       -0.64561913401795
H            1.91600515290797       -0.73799054417368        0.68956752718872
H           -1.08975435568671       -0.15190444215746        0.65219620509450
H           -0.38133440782297       -1.68808976775359        0.16864523634774
H            0.56105574355114       -2.00400156144564        2.43715498125186
H           -0.12872156306944       -0.45900421155716        2.95163596810976
H           -1.73150929221514       -2.86670214259663        1.97620972597632
H           -1.58065012106161       -2.33538073885975        3.64892116160019
H           -2.41936189342519       -1.32252305294295        2.47393458887397
H            3.04009561509663       -1.34406725795529        4.08137692129160
H            3.66953771668268        0.06195287744078        4.93928887746548
H            1.91709064165228       -0.25121031014634        4.88949594945852
H            3.81973095839053       -0.86381122953233        1.83513058239515
H            3.72610991451249        0.82784034091834        1.27850818854761
H            4.75390107764295        0.39107482103010        2.64882954300215
H           -0.71163759867684        2.64244131638913        4.46997555269594
H           -0.04609688777696        3.64679314581462        3.16911399374942
H           -0.74843732667555        2.06836198344272        2.79350137980450
H            1.33896675421613        1.84035737043698        5.84335734829232
H            2.82647367026740        2.22988332282586        4.94555175890435
H            1.56811095430769        3.44629683618391        5.14733381309404
