27
 energy: -39.211564084635 gnorm: 0.000388143873 xtb: 6.7.1 (edcfbbe)
C            1.39971924947086        0.12970761085543        0.01323567811725
C            0.52976324487805       -1.11924798884910       -0.06740481071636
C            0.82134081882078       -2.13134766424345        1.03995871473431
C            0.39587406325388       -1.66327129247985        2.44139381112706
N           -1.04850135380008       -1.55460286312082        2.51854927433648
C           -1.77973962927164       -2.64739130362263        2.77473386581455
C           -3.15874090966740       -2.60793308317451        2.76690001674273
C           -3.80042247516172       -1.41112329775819        2.47895233915422
C           -3.02355489558878       -0.28490092935496        2.21641073012892
C           -1.64265055682545       -0.39079177160440        2.24354678940029
C           -3.70702673139972        1.02339246714761        1.90816860207446
O           -4.89581378782931        1.12744037654674        1.84613316301378
O           -2.83670592061715        2.00703909164182        1.72090914952262
H            1.23066914633472        0.69585348467056        0.92658106719244
H            1.18566239981585        0.78439951578845       -0.82642643389257
H            2.45176122787283       -0.13887755724026       -0.03002753835160
H           -0.52875504433979       -0.84153724120500       -0.06125301541407
H            0.72124100949001       -1.61063785144682       -1.02206143963252
H            0.32116978901355       -3.07548301702513        0.81448279164032
H            1.89410920785693       -2.32268024186986        1.07288765484114
H            0.73860857993916       -2.38352052669739        3.18613175395423
H            0.84216776246493       -0.69302431470242        2.65978460748205
H           -1.24238912026979       -3.55968553086528        2.99034950077512
H           -3.72145630765665       -3.50225747006749        2.98225061943103
H           -4.87716459535718       -1.32641024084501        2.45503331189730
H           -1.02097157233313        0.47232855093595        2.05375663753651
H           -3.28993359909170        2.84558308858763        1.52739315909084
