32
 energy: -49.519641844855 gnorm: 0.000983802587 xtb: 6.7.1 (edcfbbe)
N            2.66443917368519       -0.89466652483592        1.99258011847742
C            3.16461144109972       -0.42106225906454        1.08272461443702
C            3.81999478835025        0.08970375355402       -0.09905003029391
C            4.81003572820143       -0.95693517200633       -0.64219756597266
N            4.11761558429003       -2.19208942465979       -0.92703682847692
C            3.87394852237351       -3.19424805963667       -0.03387219842447
C            3.07114927548907       -4.10014433723745       -0.65230131767980
N            2.84354127404751       -3.64494451014942       -1.91925578816797
C            3.47303515316891       -2.47895077235504       -2.05712227023541
C            1.85871918549904       -4.12258369313894       -2.84137014937987
C            0.79111096505907       -2.99657088901509       -3.00737551522480
O            1.06398779413106       -1.89379544958718       -2.58809443362797
C           -0.45549755095385       -3.34987710186302       -3.67038385158332
C           -1.46815377520396       -2.38041468134604       -3.68965053358844
C           -2.67554551866994       -2.64158884458890       -4.30335250652402
C           -2.88901913110380       -3.86910217821276       -4.91296447281307
C           -1.89038436993075       -4.83397849592609       -4.90751603256857
C           -0.68088907926641       -4.58499161260130       -4.29057588992060
H            3.05612482947468        0.32268112834395       -0.84635785065192
H            4.35494942948469        1.00724813638297        0.15386929073763
H            5.27431670921144       -0.58582620583697       -1.55825401028985
H            5.58772740771117       -1.15728437680272        0.09870722530411
H            4.26668139055282       -3.19090884247873        0.96223317673569
H            2.66036892546426       -5.01859137540458       -0.28616326548195
H            3.49921497061251       -1.88515682180295       -2.94945864624828
H            2.30156816110479       -4.31533749480267       -3.82276277160011
H            1.40921857542529       -5.03649583569049       -2.45466792630539
H           -1.28286358970281       -1.43168192000851       -3.20909429118892
H           -3.45057969983473       -1.89083616269710       -4.30853150780168
H           -3.83239278402411       -4.07531367884170       -5.39443279945188
H           -2.06013946178499       -5.78489616233636       -5.38701692561308
H            0.08286567603210       -5.34594013536376       -4.30929504659827
