50
 energy: -51.607394052706 gnorm: 0.000345684647 xtb: 6.7.1 (edcfbbe)
C            0.77745157865682        1.51623903935516        0.08883349911002
C            0.19037793090551        0.32497055607717        0.85023082244421
C            0.66471600464326        0.29775660061455        2.30746567337610
C            0.29528645126575        1.53623888557344        3.12677402473540
C           -1.20943053481215        1.78433143963850        3.21195995470201
C           -1.57031971939826        2.95946841850703        4.12253236793349
C           -1.01082209328318        4.31533100518337        3.68247801244509
C           -1.37183672870867        4.73633352892222        2.25655956163832
C           -2.87272650043902        4.86261376560097        2.02450650854688
P            0.28767381955984        1.61849002615158       -1.66461072904313
C            1.22226721846415        0.44817640681307       -2.71644715316352
C            0.84732203877637       -1.02209820066430       -2.56725115333795
C           -1.49650700022590        1.28841573493945       -1.87260191089715
C           -2.38836769814102        2.34469463973773       -1.22766112583293
C            0.70883346094359        3.27438170642961       -2.33164610030093
C            0.60444247092653        4.42800116180486       -1.33824628150271
H            1.87151745376255        1.48993505376376        0.11968685932902
H            0.45092695682793        2.44650269936388        0.56027848832426
H           -0.89875766624568        0.37038905177539        0.83134177219055
H            0.49248327200402       -0.61030780359209        0.37729555054849
H            0.22728298056962       -0.58191262511746        2.78272176407902
H            1.74986345835321        0.17519176777782        2.32621173635008
H            0.67864466377152        1.39256469339844        4.13821270360671
H            0.79767372515122        2.41493695306074        2.72007387043922
H           -1.62296653209886        1.96710119946037        2.21844219868923
H           -1.69119500208578        0.88556929295601        3.60336995010501
H           -2.65744394987301        3.02513598040987        4.18656901489237
H           -1.20000372139985        2.75220145948522        5.12828244809975
H           -1.38872569299358        5.07287440565665        4.37134319009190
H            0.07696398259605        4.30890610015780        3.78066247646696
H           -0.90143423631716        5.70239288284458        2.05876451591328
H           -0.95022292698261        4.02249123610339        1.54253876309983
H           -3.30637092262020        5.54821375027449        2.74722862645983
H           -3.07478773640566        5.24894882614020        1.02716432555705
H           -3.37119464725121        3.90175789658092        2.12563580368679
H            1.05615915780504        0.77230161557352       -3.74947270440052
H            2.28265684423798        0.59526428447105       -2.48828824127827
H           -0.20647314312076       -1.18842641860193       -2.77558215488934
H            1.42412748495168       -1.61044253981694       -3.27681425132546
H            1.07207504996234       -1.39374728913430       -1.57158202858267
H           -1.68641663786169        1.23267277053530       -2.94906254214205
H           -1.69841840629557        0.30307035769291       -1.44384021491886
H           -2.27188631605081        3.30971352214288       -1.71441550390577
H           -3.43008251967358        2.04841490922202       -1.32433866425667
H           -2.17121291681492        2.45871138885732       -0.16814965871740
H            1.73092940873138        3.21158239892786       -2.71688919252719
H            0.04409625269425        3.44275405504558       -3.18468771284594
H            1.35175550443817        4.34130687090224       -0.55347270460393
H            0.78457016137141        5.36432162757191       -1.86114697716057
H           -0.38001408227222        4.48675491140706       -0.88166747722867
