28
 energy: -34.213581672821 gnorm: 0.000381582429 xtb: 6.7.1 (edcfbbe)
C           -0.54685733021575       -2.34153451400310       -6.53064760763070
C           -0.87409395641543       -1.35574820923165       -5.46436278366172
C            0.00436064799440       -0.84638226749347       -4.60575503141195
C           -0.36077181228664        0.17815510857348       -3.54898850848338
N           -0.11269923339528       -0.40227121407136       -2.21442556800811
C            0.53923482952823        0.29310437458832       -1.28015029641692
C            0.76168924152447       -0.23212013393570       -0.02304677107666
C            0.29216367415265       -1.50496681205276        0.27246257515642
C           -0.39147050947004       -2.20807364123524       -0.71170644158809
C           -0.57620979928986       -1.62693878821309       -1.94836424074737
C           -1.79612169643335        0.69734297394688       -3.57771185553216
C            1.45987878568697       -1.23200221692246       -4.60973465791637
H            0.33131469348476       -2.93219787858298       -6.28870474680956
H           -0.35430752772246       -1.81602903371247       -7.46616000596878
H           -1.39029003507216       -3.00623381699747       -6.69979915016264
H           -1.90512006949822       -1.03603485622658       -5.44388122448016
H            0.31830836779698        1.03210661537441       -3.65398693272476
H            0.88724866634482        1.28072291719840       -1.54702998585402
H            1.29674188027801        0.34950000161426        0.71029220756326
H            0.45600322298743       -1.93917964206412        1.24601608541693
H           -0.77484185610122       -3.19823190286965       -0.52454837387546
H           -1.08596912441037       -2.13626808961025       -2.75391033684267
H           -1.94058043397614        1.44172839866871       -2.79738200982709
H           -1.98958328983278        1.17087606420839       -4.53542484251862
H           -2.51531071800632       -0.10359608397905       -3.42812404005543
H            1.58845879999204       -2.28512388418538       -4.36102415146864
H            1.88727962803323       -1.07566810095304       -5.59764656718453
H            2.03478495432016       -0.64290536783713       -3.89868473789095
