69
 energy: -76.368022751073 gnorm: 0.000201241436 xtb: 6.7.1 (edcfbbe)
C            1.45589939237899       -0.32211681064279        0.75150482673996
C            1.52617810847755        1.18422777316362        0.97367010142100
C            1.70110182401909        1.97746553859347       -0.32225712748349
C            0.55342117784922        1.83664575312677       -1.32401110717581
C           -0.81058394148586        2.30385208541340       -0.81282207251410
C           -0.88117531079209        3.78008016140485       -0.41627944218362
C           -0.53149004847631        4.76747562844455       -1.53232044839723
C           -1.35607849503274        4.61364191320646       -2.81167169611386
C           -2.86603935059308        4.76902691778314       -2.62507020341506
C           -3.32048913010712        6.16431024079029       -2.19221514972892
C           -2.99603774367493        7.28641848599786       -3.18204878372715
C           -3.49424460264932        7.05139832396518       -4.61011499709025
C           -4.99481801714966        6.77915871291933       -4.73202593498250
C           -5.89492979879385        7.94952687791919       -4.32828191763227
C           -5.83563780706666        9.15092276099461       -5.28023550366298
C           -6.37115470147399        8.87274456137609       -6.68868222100734
N           -7.79624836879431        9.25615331579091       -6.96432620568031
C           -8.16008128872364        8.67245059168802       -8.28709004684664
C           -8.46583327264554        9.46283992862863       -9.38381282847615
C           -8.79971292594925        8.86949455852459      -10.59316119101467
C           -8.83030084369406        7.49382753838497      -10.72077775771490
C           -8.52145286847291        6.70438627165619       -9.62611399049729
C           -8.18790414738151        7.28730826690963       -8.41694258597967
C           -7.91394054386083       10.72599974157983       -6.95065835332419
C           -8.73167561458254        8.72507471773922       -5.95124553630097
H            0.55795530939192       -0.59757105590395        0.20413414050613
H            1.44149772497098       -0.84342910307950        1.70590029684058
H            2.32168091095197       -0.66410122969690        0.18826085379165
H            0.62763044037649        1.51769843360226        1.49585120581311
H            2.37768362183974        1.40457723719129        1.62216680773650
H            1.83512290951935        3.03188099646520       -0.07185350636419
H            2.61928628372973        1.64260037481413       -0.81198906583392
H            0.81421038462101        2.39954716969982       -2.22291518007065
H            0.46579073143417        0.78940546379056       -1.61981710072820
H           -1.55346495628388        2.10257260632613       -1.58822660752829
H           -1.09162550187788        1.70536034297245        0.05578340095159
H           -1.89016331112877        3.98838726716772       -0.05216468148273
H           -0.20174164940538        3.95943422303944        0.41896194249914
H           -0.65099819056682        5.78105604013810       -1.14242137768807
H            0.52178032172737        4.65105211635628       -1.79447069713631
H           -1.00181923364388        5.34709069964213       -3.53953836949695
H           -1.16711099442800        3.62698633774441       -3.23829187113464
H           -3.35782474320111        4.50056077526498       -3.56300454596452
H           -3.20704855380552        4.05436530141500       -1.87459882350049
H           -4.39889519409757        6.13636799171269       -2.01573681019919
H           -2.85243612823070        6.41185319624941       -1.23841073648066
H           -3.41354836104743        8.21867789034654       -2.79343838118684
H           -1.91443595894625        7.42169688881347       -3.22590480076113
H           -3.22318604803418        7.91728145387297       -5.21933021561946
H           -2.96501374414027        6.19491016952802       -5.02925902592038
H           -5.20416849412063        6.47742794357320       -5.76233964381581
H           -5.24810326845001        5.92870272958234       -4.09950295755212
H           -6.91947795724310        7.58602788986630       -4.23485114709543
H           -5.58954472923112        8.29377307455255       -3.34042218885562
H           -6.34607879627845        9.99656922563836       -4.81933678829348
H           -4.79063439588261        9.44433776849587       -5.38212402079977
H           -5.77236584774174        9.40367442096940       -7.43180942465790
H           -6.26770234830579        7.80710370955301       -6.89073815290833
H           -8.45690263381521       10.53793763752533       -9.34072429865752
H           -9.03597481719833        9.49917161933774      -11.43592394140734
H           -9.09092780830707        7.03936450059636      -11.66271684885047
H           -8.53859942301184        5.62930021423848       -9.70669135825742
H           -7.95328913063019        6.63701465358960       -7.58867961541119
H           -8.93321530424839       11.02361706482185       -7.18951510412511
H           -7.67191332041531       11.10282496460638       -5.95940522517750
H           -7.22237803025619       11.17281230237255       -7.66177239010201
H           -8.62233445546744        7.64944778987965       -5.84830496393798
H           -8.54710975691515        9.19170624982466       -4.98649900589989
H           -9.75390723340960        8.94171079834041       -6.25922960228337
