28
 energy: -33.394316031773 gnorm: 0.000467997382 xtb: 6.7.1 (edcfbbe)
N            0.11945213785404       -0.58425495936929       -0.61023763199027
C           -0.59183965100419       -1.41809572715584        0.39928087449299
C           -2.10152299939977       -1.34354835604615        0.22192394555474
C           -2.68138312114621        0.05395944610615        0.43488054154745
C           -2.23986598938124        1.07058414475341       -0.62058486463046
C           -0.89749634962051        1.73797564499274       -0.31754695439532
C            0.27114472047324        0.84413658364289       -0.09039966920748
N            1.30921428265218        1.22325597408285        0.45635652688936
C            2.50638166240495        0.47558443665227        0.63394417886746
C            2.40093555255866       -0.99434257520296        0.21601898287274
C            1.46038668878028       -1.10420805372275       -0.97913308584839
H           -0.47402119322617       -0.54995484058500       -1.44585987453186
H           -0.26134384872257       -2.45315807864482        0.28509384785992
H           -0.31074209590008       -1.06833819870575        1.39493511924248
H           -2.54949408106347       -2.02585220259616        0.94513018670523
H           -2.37328229948551       -1.70648783091964       -0.77307820374935
H           -2.41617160186213        0.41932275413518        1.42796293738428
H           -3.76717711960906       -0.03290777775355        0.40145865021017
H           -2.23847113974153        0.60462404041367       -1.61079389967189
H           -2.97953783489385        1.87029671093265       -0.66398676407517
H           -0.63932030935847        2.40975858723553       -1.14245022812113
H           -0.99116896267589        2.37149242446095        0.56652017333865
H            3.26798029386204        1.00248120240233        0.05018545781278
H            2.79589487154130        0.57711890204477        1.68218853065162
H            3.38147758961200       -1.37739552692885       -0.06100839970433
H            2.03101595895672       -1.60232846164860        1.04178636772502
H            1.84086439437769       -0.49886220127788       -1.80648981178571
H            1.36572044401795       -2.13854606129795       -1.31632693344170
