45
 energy: -50.246652576521 gnorm: 0.000460137573 xtb: 6.7.1 (edcfbbe)
C            1.56437280633943       -0.26175415454035       -0.01151737642310
C            1.06610920693081        1.17649827016127        0.06007552300937
C            1.27859364735624        1.95482557668382       -1.23962204063623
C            0.54432525377109        1.38960666698878       -2.45786332565562
C           -0.97465573057581        1.27568588740078       -2.30354785600161
C           -1.68402722003693        2.58951164732290       -1.96646668719542
C           -1.49270509774083        3.71225657912585       -2.99031479372563
C           -1.89502645980489        3.44520108529070       -4.44349171736827
N           -3.35127674797203        3.32367154609945       -4.77169413399144
C           -4.17574469093339        4.30384765154036       -4.02045450893940
C           -5.62014299048537        4.27936974359413       -4.57964359965499
N           -5.79756458633909        3.12982840055676       -5.43844190805478
C           -5.39243708413843        1.93266364102808       -4.73615472927230
C           -3.86304342804565        1.95502347930252       -4.49871861333233
C           -4.99057950549292        3.28689082054524       -6.62760939185143
C           -3.52637992543920        3.58909359799708       -6.22782433543362
H            0.98107463689656       -0.85054994659623       -0.71531247792950
H            1.48685230171004       -0.73282391335668        0.96487891879226
H            2.60658073557223       -0.28769539213526       -0.32022818070939
H            0.00979020247648        1.18368531162279        0.33642717621373
H            1.60895705964350        1.69623642490710        0.85218094039510
H            0.98346850747542        2.99461946891377       -1.07950797749477
H            2.34616174836657        1.95792823801272       -1.46922910917299
H            0.78389092356785        2.01252246307239       -3.32369267739429
H            0.93197755676036        0.39272550935693       -2.67059806940015
H           -1.38111695404096        0.84585556370082       -3.22353986012162
H           -1.19357712609512        0.56687709414231       -1.50454441318467
H           -2.74574738739227        2.39361828730661       -1.79362110918909
H           -1.28900524117683        2.95806702758832       -1.01937725514695
H           -1.97933749412246        4.61638251208750       -2.62235227138851
H           -0.42517655705124        3.93625431046889       -3.03478472895250
H           -1.51348503468473        4.27990780627989       -5.03706379215842
H           -1.40805597812839        2.53332004693006       -4.79371455123019
H           -3.72711959635501        5.29217733926555       -4.12682301773429
H           -4.16466205296061        4.02244801170499       -2.96786635132934
H           -6.34289177474539        4.22526757869002       -3.76399640352979
H           -5.83627815523923        5.17873077859336       -5.15783830170819
H           -5.93839392711419        1.88435775091804       -3.79344541987350
H           -5.67394460293549        1.06198907586600       -5.33001496050215
H           -3.62116832250273        1.68030878480064       -3.47479821585589
H           -3.35128588204354        1.26622439888340       -5.17305134854893
H           -5.06086477706241        2.37201821100858       -7.21705700274983
H           -5.39847548585638        4.10245132765231       -7.22663311590114
H           -3.27961292487393        4.63577577791028       -6.41254528085975
H           -2.82567184547098        2.96526971330718       -6.78411164881544
