53
 energy: -64.138894861658 gnorm: 0.000357964466 xtb: 6.7.1 (edcfbbe)
C            1.68497554604511        0.39638171195690       -0.17510275670307
C            1.59483545889671        0.34437206081992       -1.69539145471402
C            1.50988654810793       -1.07966317079513       -2.24771479246633
C            0.28737653696623       -1.87850597084261       -1.79050746615127
C           -1.06390017633097       -1.24450545537065       -2.12550137313631
C           -1.30644764444687       -0.96762834204306       -3.61187654982287
C           -1.27536841170295       -2.20916503595761       -4.50815949012435
C           -2.41646943729937       -3.19652908711073       -4.26609501321011
C           -3.79086490772124       -2.70170553728666       -4.76312880285067
C           -3.87518300072269       -2.60305994352615       -6.23872867942007
N           -3.81671772236938       -1.47394010676177       -6.96011485555675
C           -3.69636496186213       -0.13080223810179       -6.45422269187689
C           -3.93683234461345       -1.79205289338252       -8.28167963913982
C           -4.07248771076476       -3.13970612778711       -8.36125025926299
N           -4.03841659173152       -3.62783123879782       -7.08709407798215
C           -4.12489284680406       -5.03235084114958       -6.75871215680360
C           -2.76506455418438       -5.68465979980195       -6.60578405218818
C           -1.70575581107013       -5.33830108207884       -7.43456231861577
C           -0.47797584722363       -5.96134599703731       -7.29119248955814
C           -0.30254701257688       -6.94027769539839       -6.32807641362319
C           -1.35887091204560       -7.29559310754560       -5.50620476558307
C           -2.58498103183472       -6.66827177686471       -5.64121713400868
H            0.77047089587235        0.03510481600038        0.28800176640401
H            1.84803646245319        1.41900028650272        0.15566441308957
H            2.51409870400394       -0.21235596439443        0.17767486968155
H            0.73466251495101        0.92830360447915       -2.02911176008051
H            2.48664439356149        0.81457929643926       -2.11599135668031
H            1.53092892226522       -1.03538560047220       -3.33932493860806
H            2.40164685096136       -1.62584892622638       -1.93210266198708
H            0.34365101269002       -2.87696135216011       -2.23062966401720
H            0.33486124244628       -2.00899608280543       -0.70866663810776
H           -1.85268413855623       -1.89476796014867       -1.74011865395426
H           -1.15088598913815       -0.29613176707952       -1.59358403027516
H           -2.27225406712521       -0.46186228243828       -3.70025081752961
H           -0.54475097609819       -0.27214576831496       -3.96703330039090
H           -1.27498379656176       -1.90469341332712       -5.55917479966496
H           -0.33638806418922       -2.73486420678431       -4.33606014029973
H           -2.17772166743124       -4.14066636619612       -4.75614857122844
H           -2.50088077900151       -3.39292784387458       -3.19839495008891
H           -4.55195283489377       -3.40427299099408       -4.41536638191083
H           -4.00642604697479       -1.72961889799291       -4.32115811563482
H           -4.55825723891254        0.12270027710736       -5.83538825288463
H           -2.78845928058415       -0.02031540340182       -5.86211719546065
H           -3.65566002437055        0.55966512597866       -7.29317187138004
H           -3.91831904845356       -1.05230402122932       -9.05498236069774
H           -4.19967614893864       -3.77378030293590       -9.21448750730379
H           -4.69651586914747       -5.15223896867805       -5.83528427373211
H           -4.67477546068410       -5.52456738329796       -7.56700191246549
H           -1.83099557443035       -4.58166404673127       -8.19625801974077
H            0.33938319930523       -5.68432521220863       -7.93842797642908
H            0.65357388263905       -7.42759793095080       -6.22131627107637
H           -1.23050317385772       -8.06127156985854       -4.75753105978111
H           -3.40656106643099       -6.94755746915367       -4.99821033495589
