32
 energy: -53.267188268467 gnorm: 0.000376513676 xtb: 6.7.1 (edcfbbe)
C            1.33938071329792        0.46704260688691        0.01064267769878
C            0.64404206274282        0.00929625700226       -1.25855637578906
O            0.99731264029522       -1.33335847541378       -1.65125130804085
N            2.28437658841353       -1.50330568827411       -2.03120620942431
C            3.30069069029036       -1.92359256297076       -1.23073678698809
C            4.39869390122140       -2.03265747941503       -2.02938948103752
N            4.03294811140981       -1.67446475885464       -3.29096240146110
C            2.74175102207767       -1.35912261632145       -3.27544921900033
C            4.88359312630978       -1.72845089866548       -4.46604203166281
C            4.77819148726095       -3.09170060013441       -5.11709595841308
C            5.56133466464243       -4.14420831105998       -4.65479793538859
C            5.44765832649996       -5.39852340376033       -5.22427707716450
C            4.54162886762867       -5.59032549166927       -6.25703225916885
C            3.75879981218609       -4.54955696347370       -6.73439770410527
C            3.87811301207376       -3.29929030034977       -6.15652329337036
N            4.40826530277739       -6.91418083357093       -6.85225329507011
O            5.10647032575988       -7.78880897923288       -6.40131963021446
O            3.60414727617662       -7.03379911042403       -7.74381161629275
H            1.17091067086913       -0.24554567661594        0.81416453226348
H            0.92340427707099        1.42371267168464        0.31188695989940
H            2.41019128076426        0.59638570176444       -0.13892618179473
H           -0.43219380184929       -0.07778306667370       -1.10628467119625
H            0.83729059792233        0.69533853451955       -2.09077803116882
H            3.16736088099940       -2.11930366222455       -0.18598246261985
H            5.39679756292281       -2.32994381639423       -1.77869990405658
H            2.15084698687202       -1.04926653960867       -4.11592180431571
H            4.56829737516772       -0.94996487030269       -5.16318906164749
H            5.91139789823970       -1.53474364985191       -4.15314075549738
H            6.27309466301167       -3.98540406422089       -3.85922796725343
H            6.04841337987919       -6.22901263468594       -4.88610468266925
H            3.07243810143018       -4.73294496309053       -7.54693826134635
H            3.27945219564455       -2.48241635459750       -6.53009780370457
