39
 energy: -58.070899155155 gnorm: 0.000205892458 xtb: 6.7.1 (edcfbbe)
C            2.65785962882716        0.18089336870269       -1.42266776252891
C            1.28509374015828        0.13310664159430       -0.84716682739048
C            0.78013129904326       -1.05893841517040       -0.32555721932316
C           -0.48918262415301       -1.11540122247751        0.19951972180367
C           -1.31368661092208        0.02114687066533        0.20471687066478
C           -0.80589723553670        1.21897563839052       -0.31261941721046
C            0.47403972063254        1.26707697123640       -0.82050136338044
C           -2.63638308086605       -0.10672362291249        0.78758890805186
O           -2.95497961711805       -1.02773427084287        1.52379108271368
C           -3.70574198532760        0.96465098033838        0.48238985689462
N           -3.84373824719944        1.89015598655140        1.58734336739814
C           -4.22046157434133        1.55715322594859        2.84003439424478
N           -4.52691955459983        0.32482606730873        3.23156345608782
N           -4.29539244624103        2.66011336108705        3.60838859070703
C           -3.96409802151362        3.75850046277983        2.82405047375194
C           -3.67925645637599        3.27011865965529        1.53893052549313
C           -3.33356848073662        4.12691040197866        0.50782868547749
C           -3.26424736194497        5.47711204945526        0.80262605579947
C           -3.53529660609713        5.95890731523591        2.07960952853785
C           -3.89477072010126        5.11057699191607        3.11176790400746
C           -4.66579175374187        2.67493489736294        5.00117440630332
H            3.36649210333969       -0.31983767490802       -0.76601299079101
H            2.67409912886862       -0.34372679124010       -2.37821647038860
H            2.98448697436088        1.20373239144878       -1.58789856740464
H            1.39793825950770       -1.94403640484038       -0.33336154984956
H           -0.88127006764629       -2.03611405752186        0.60396198516363
H           -1.38759989118351        2.12705993940770       -0.28098771015992
H            0.85772750395420        2.20058589631372       -1.20444567143132
H           -3.47186231745045        1.52746994996596       -0.41796898948131
H           -4.65684924359213        0.43939505999914        0.33266405092104
H           -4.19826707846793       -0.46191552550437        2.66030300479338
H           -4.74127204814440        0.14885483738407        4.19827513354124
H           -3.13797341338730        3.77458861958528       -0.49201602958444
H           -2.99849537903132        6.17202044841803        0.02246904227269
H           -3.47058711741368        7.01832861741616        2.26761262217760
H           -4.11395613543290        5.49730235890364        4.09322815856023
H           -5.71881795281943        2.41516959478373        5.12572851066823
H           -4.04845493071330        1.97536326491953        5.56753314782492
H           -4.50407040658582        3.67399711666716        5.39618108503548
