30
 energy: -32.010880735729 gnorm: 0.000481428305 xtb: 6.7.1 (edcfbbe)
C            1.53927585898921       -0.49795088178560        0.27113081710687
C            0.73820263021387       -0.45144144935146        1.56783466643172
C            0.92690521243622        0.85084675310835        2.35063292730453
C            0.42466709332677        2.14347434998853        1.70298361327869
N           -1.05199754248638        2.30997620338230        1.53224190746487
C           -1.75918813818572        1.95496218460949        2.77582356752398
C           -1.61055555275629        1.52483177191426        0.37792822856518
C           -2.34763543669283        2.51122798333164       -0.53368191490153
C           -2.60847764745687        3.71316688704837        0.36824316247325
C           -1.34053519085275        3.74302718579599        1.20483024098651
H            1.22244570869258        0.25604546326681       -0.44724835646605
H            1.42392701783126       -1.47041779274067       -0.19880663272860
H            2.59608315751533       -0.34653248150192        0.47510876676847
H           -0.31723768475405       -0.64358552931312        1.36795447813785
H            1.08818374286277       -1.26175809233563        2.20915678084800
H            0.50159311682323        0.73921286602774        3.34805493751362
H            2.00060672528720        0.99914747723736        2.48798964435703
H            0.75790050508443        2.97257923077730        2.33262960808354
H            0.88262114432907        2.26232907572231        0.71962305708532
H           -1.68389972314240        0.88673522706279        2.96479573186586
H           -1.32621494120620        2.49394123450794        3.61708477577260
H           -2.81055244278352        2.22080131604407        2.69016900973593
H           -2.29287998592571        0.76749562680287        0.76076498552178
H           -0.80483587436613        1.02466619078230       -0.15340471288925
H           -1.71708837973059        2.80460248238079       -1.37238855180748
H           -3.26133229447820        2.08093292518779       -0.93491080110619
H           -2.74209666669250        4.63429723552328       -0.19250408810441
H           -3.49459265818689        3.56174338322821        0.98406158474083
H           -0.51823467875555        4.13481180116424        0.60386963582145
H           -1.42433707493963        4.33087137213323        2.11719293061619
