46
 energy: -71.239385402426 gnorm: 0.000291008623 xtb: 6.7.1 (edcfbbe)
C            1.36454170851484        1.76206882842854        0.38163606898007
O            0.59021440712748        1.88952039921908       -0.81533002484382
C            0.86566332974286        1.10085016584799       -1.82687349044336
O            1.72606848918283        0.26518615017996       -1.89171880132371
C           -0.10138203463837        1.37154655462475       -2.99924729095602
N            0.35729831020100        0.67221214442662       -4.16543846766623
C            0.35849819512735       -0.66207177116510       -4.31817728266546
C           -0.30613426996107       -1.60703404031902       -3.40635195073348
N            1.02120057516944       -0.98939954927863       -5.43314297973711
C            1.47479899156472        0.17282770548118       -6.03291141135963
C            1.06739209045088        1.23556550626239       -5.20951191949481
C            1.37524042347565        2.55211772261940       -5.52376513825720
C            2.09147160264767        2.76999019327327       -6.68350148527068
C            2.48174343980012        1.71658186787492       -7.51198269733491
C            2.18121949409061        0.40447206344867       -7.20670422306251
C            1.22968872100175       -2.32776133322225       -5.92796170255013
C            1.94146597882702       -3.24658109929956       -4.89274165746653
O            1.26701726393049       -4.06048448729086       -4.30435132519714
C            3.37765895246888       -3.08813346923636       -4.69810709997915
C            4.14439407361985       -2.06753072215544       -5.27113573390442
C            5.50085317005471       -2.00641596097859       -5.03934461133416
C            6.14417678737417       -2.95419035218384       -4.24273666004949
C            5.37883708484523       -3.96466417288352       -3.66545102792011
C            4.02096335265371       -4.03007375965370       -3.88324227717651
C            7.61395871429125       -2.86865766978053       -4.00818097767109
H            0.74780348638809        1.28686262195104        1.14425497001761
H            1.63501153786253        2.76723254089928        0.69827436474028
H            2.25576429939736        1.16315588241990        0.19318445924430
H           -1.10169251932057        1.03873750100725       -2.70847952472298
H           -0.14209506264558        2.44225214987109       -3.19997594247649
H            0.33324745724218       -1.79592645372929       -2.54185169620322
H           -1.24774562988376       -1.19832844263286       -3.04438568210151
H           -0.48980326115557       -2.56418079404386       -3.88801672239425
H            1.07327535043495        3.37544813379551       -4.89752578679092
H            2.35202453915359        3.77865763209642       -6.96097673876531
H            3.02989705015241        1.93483410894702       -8.41436551139440
H            2.47926820258208       -0.39526650388779       -7.86577746241440
H            0.26270528301378       -2.79277435119191       -6.14824770929258
H            1.81175117578211       -2.27862283476648       -6.84724697363901
H            3.69287530791844       -1.31006732974073       -5.89178539021617
H            6.08188493030658       -1.21362817656191       -5.48735320345069
H            5.85732593385591       -4.70633983679949       -3.04404863046782
H            3.42673342631747       -4.81554404584099       -3.44178880669929
H            8.13812707333215       -2.61605992165097       -4.92743358229263
H            7.82582919306332       -2.08303833911076       -3.28225483196381
H            8.00533337463420       -3.80457445525505       -3.61964543129839
