32
 energy: -43.088122858242 gnorm: 0.000929058668 xtb: 6.7.1 (edcfbbe)
C            1.89716132499886        2.28791709113208       -1.19392131431220
C            1.50620742144692        1.32598474130999       -2.31423561055133
N            1.41013066795993       -0.04495582234310       -1.84714924879932
C            0.32933147522558       -0.61289105598779       -1.32333210334755
O            0.28644146873148       -1.73881293216526       -0.85962522537209
C           -0.98578951768814        0.23714209175240       -1.29008823644608
N           -2.03810646092185       -0.65211182126719       -0.90084975159250
C           -3.07261214259837       -1.08878895373539       -1.67522809888278
C           -3.67150585992179       -2.11155381973778       -1.00901846797516
N           -2.98541369211104       -2.29629076051307        0.15519289835529
C           -1.99331544388138       -1.41316671171469        0.19377866350936
C           -3.26077037871939       -3.31236900779823        1.13475448304633
C            2.63740417099152       -0.83597315143492       -1.90462054575533
C            2.83107243063390       -1.46660570013651       -3.27777015751613
H            1.14666705634072        2.31198843496929       -0.40780243036856
H            2.00510759010610        3.29070988347538       -1.59679773800096
H            2.84479505673934        1.99472524267613       -0.75062997599005
H            0.56720050104538        1.64317482224692       -2.76981976794287
H            2.27231197394227        1.35076962758930       -3.09149962541252
H           -0.87028636608890        1.04384190954028       -0.56259146304132
H           -1.21883905337737        0.65597171869265       -2.26861050713257
H           -3.31383903239900       -0.64704277275717       -2.62063981926674
H           -4.51845675333893       -2.70817497010189       -1.28009278562373
H           -1.28761862361118       -1.31076787382209        0.99446363695558
H           -2.79079230520940       -3.05219833279631        2.08068637228714
H           -4.33590829233342       -3.40846385352045        1.27883437856620
H           -2.86473901545771       -4.27268524214522        0.79931197225896
H            3.47647752215306       -0.18304336752032       -1.65981363961069
H            2.56210843541338       -1.61823749781754       -1.14760013295343
H            2.89382433422796       -0.70952624752508       -4.05565391517341
H            3.75208148097826       -2.04150362594616       -3.28507613118063
H            2.00553002672347       -2.13561204266079       -3.50498571274541
