25
 energy: -32.992792151594 gnorm: 0.000270258167 xtb: 6.7.1 (edcfbbe)
O            1.67208444538470       -0.07678912132761       -0.56718713626971
C            0.56021316264417        0.59109477758460       -1.11575670153335
C            0.95075920145076        2.01285607842671       -1.43733396127731
C            0.22347375177505        3.06027144538016       -0.88428479930786
C            0.56980827088088        4.37589969731539       -1.13770066071738
C            1.66893720065126        4.62325607067558       -1.94951875216198
C            2.35355202993728        3.55283074821510       -2.47636960898305
N            1.99882905007552        2.28308348456843       -2.23593585271766
C            2.81749187042033        1.22385540751542       -2.85418473004754
C            2.95981653203981        1.44859393495882       -4.35727124778050
C            4.16688798945727        1.16060000645959       -2.14316664538371
H            1.39286817004713       -0.90279942049207       -0.15756369389634
H            0.20703797910548        0.09107286816689       -2.03420553643068
H           -0.27538047256537        0.61648923801388       -0.40790171339804
H           -0.61570757223826        2.83565392676933       -0.24530076586433
H            0.00469686141102        5.18640685865750       -0.70539293227093
H            1.99112391163553        5.62814488400082       -2.16906650850647
H            3.21163742353461        3.70558791708003       -3.11121413031945
H            2.30779048066802        0.27622813084928       -2.69214769456986
H            3.66973409534840        2.23491793265980       -4.59826803358347
H            3.32720208517024        0.53192140244027       -4.81026987537230
H            2.00024379054592        1.68625634828146       -4.81183191727741
H            4.02456488057313        0.93556724234961       -1.08936586755037
H            4.76231067790953        0.36619998362355       -2.58298452840573
H            4.71628418413762        2.09354015782744       -2.23974670637458
