29
 energy: -49.899157603778 gnorm: 0.000672790693 xtb: 6.7.1 (edcfbbe)
C           -0.34053560495707       -0.87683715911380        0.26253808417033
O           -0.68776841551827       -0.13888857348313        1.42303502746343
N            0.32291579471369        0.54638224844459        2.01701253056181
C            1.66246219281255        0.45726246712526        1.80469270036373
C            2.24791165389899        1.33150195197345        2.67334643767135
N            1.26197252379551        1.91520050717985        3.40366044415171
C            0.09003730177197        1.43814177065813        2.97657700492642
C            1.39244902158226        3.03122545781833        4.29301554308576
C            0.64561414019277        4.24420317571160        3.65668484266643
O           -0.04989264850171        4.03743698664739        2.68863562285428
C            0.82936375755778        5.54189705235718        4.28868463891518
C            1.56410551638607        5.74239884829030        5.46452121972710
C            1.67914593137916        7.00344905952936        6.00615474154060
C            1.06646101025406        8.09080318443536        5.38437049256637
C            0.33044518407981        7.90779152137024        4.21642465690234
C            0.21412143621666        6.64649505020354        3.67968667591260
Cl           1.21930182011632        9.65320622558055        6.06358147463181
H           -1.29361304149176       -1.26195271277850       -0.09404970600713
H            0.32056545463566       -1.71376113408678        0.49900292355207
H            0.10163297428895       -0.23592187918257       -0.50348208750413
H            2.11399024636536       -0.18809815091979        1.08034866946098
H            3.28563106899856        1.55852521852674        2.81054869573384
H           -0.88399620689834        1.69846118104888        3.33951980876769
H            0.92542061274826        2.81181718614377        5.25688723589795
H            2.44863642034213        3.25680019720591        4.43745520135317
H            2.04076160916771        4.91871318982925        5.97195844977894
H            2.24180617902471        7.15771239570607        6.91262954778721
H           -0.14342064526677        8.75217815590867        3.74218063249689
H           -0.35398528770264        6.48410657786648        2.77623849057508
