33
 energy: -45.543423222109 gnorm: 0.000532186860 xtb: 6.7.1 (edcfbbe)
C            1.30999723997584        0.14547070895130       -0.46380627737628
C            0.77212567423589       -1.03757369330221       -1.26072400770787
C            1.10149803093835       -2.39123933192301       -0.63289046001579
C            0.37821354297678       -2.65904588393874        0.69757375828430
N           -1.05096548059131       -2.78438635998006        0.48746516493691
C           -1.56194819939057       -3.96743255143700        0.12126101219869
C           -2.90245241227911       -4.10912043456359       -0.15517657210825
C           -3.74105539755066       -2.99829889276896       -0.06159760985809
C           -3.18965887880264       -1.77634969066551        0.31334319025734
C           -1.83820667635951       -1.70624166174585        0.58194332233121
C           -5.21085829372465       -3.18318405374548       -0.36248037806438
O           -5.66195163969189       -4.25955541512407       -0.64455138661785
O           -5.87263242175513       -2.04857368066943       -0.25826662332864
C           -7.28685392505459       -2.08221632706826       -0.53105168026436
C           -7.56388955132131       -2.03849806370574       -2.02493831423105
H            0.86673895748528        0.21587980615275        0.52721387489223
H            1.09730956754362        1.07258977833297       -0.98810231313073
H            2.38733137548278        0.06479038609035       -0.34759526967027
H           -0.30792008106936       -0.93654929813953       -1.40341219957508
H            1.22452273950538       -1.01664473559565       -2.25291742763944
H            0.85727782460076       -3.18994893865251       -1.33623622445051
H            2.17232435891376       -2.43891177522772       -0.43350653964840
H            0.75382692598894       -3.58684839137934        1.13231907762493
H            0.57016530592459       -1.84293780050073        1.39447389324773
H           -0.88017932691126       -4.80305257730899        0.05818663585701
H           -3.31991761473382       -5.06349224379913       -0.44048021838714
H           -3.81096071067920       -0.89885893320786        0.39659922099426
H           -1.37628165167963       -0.77999843787579        0.89045323596205
H           -7.70620766628479       -2.99114445855173       -0.09026134090075
H           -7.68362443729050       -1.20033944205654       -0.02646146979655
H           -7.18485822728443       -2.93554731099133       -2.50832563846755
H           -8.63606137827389       -1.98504696307914       -2.18548392598464
H           -7.09735757284419       -1.16507333252230       -2.47403650936373
