45
 energy: -51.093728192869 gnorm: 0.000430659719 xtb: 6.7.1 (edcfbbe)
C            1.10364273647212       -0.26198592848422        0.38996927194687
C            0.55532659290048        0.64250556965511       -0.70711273947464
C            1.03767352140812        0.25492577135021       -2.10612824002116
C            0.60741170032134       -1.13713939201119       -2.57418807238599
C           -0.90513055538887       -1.37127569062431       -2.60657424701958
C           -1.69441695083727       -0.37671532712956       -3.46245837676307
C           -1.28891249172269       -0.33085158614685       -4.93538198709719
C           -1.60464625731378       -1.61844275888212       -5.70999923769973
N           -3.03874705265565       -1.81233359557789       -5.81679341897182
C           -3.69079242000103       -2.56588051962134       -4.92311862456585
C           -5.06038043630271       -2.69185706122395       -4.95493890387492
C           -5.80774439847333       -2.02464836111416       -5.92916328311106
C           -5.09294336326627       -1.24990046642561       -6.85016366778634
C           -3.72543219283112       -1.16043598693159       -6.76600920787495
C           -7.28120885873861       -2.16790149342187       -6.02583171149255
C           -7.66096022891138       -3.17803541925790       -7.13025027358614
C           -7.21363183947260       -4.59537053906892       -6.80266980547805
H            0.72248806002893       -1.27582805163646        0.29656544444890
H            0.81422563764629        0.11707604597725        1.36683332448995
H            2.18949911033388       -0.29611205584068        0.34608229175022
H           -0.53596661331967        0.64067265522156       -0.67036755196518
H            0.88192276413009        1.66626238422304       -0.51277175837144
H            0.69134750215230        1.00682219998776       -2.81914285208062
H            2.12925941254157        0.28459218445780       -2.11472074691352
H            1.02970868267054       -1.31334725398876       -3.56671030055469
H            1.04535777438539       -1.88387280109546       -1.91083440153439
H           -1.08186872268275       -2.39445889420815       -2.95068979596311
H           -1.29308948963205       -1.31233294438021       -1.58918866069223
H           -2.76230308696574       -0.60405004410411       -3.37891804496320
H           -1.55411405042957        0.62208523974307       -3.04977137418718
H           -1.79479330567991        0.50703402086992       -5.42053478307774
H           -0.21673104410416       -0.15587004745879       -5.01055998155218
H           -1.18398237622673       -1.55302443890874       -6.71527944081079
H           -1.16416379807592       -2.47651740511761       -5.20193912130731
H           -3.09692272905639       -3.07733767638822       -4.18057810148438
H           -5.55173245126674       -3.30863144261009       -4.21924980026554
H           -5.61237344778815       -0.71392973320694       -7.62889209948139
H           -3.15445471727482       -0.56365173966027       -7.46180197082617
H           -7.69232403601726       -2.51253658843758       -5.07674003221408
H           -7.72707482640292       -1.20389251918589       -6.27654822801421
H           -8.74541056705611       -3.15840268839937       -7.23729468242603
H           -7.22468862958537       -2.86101871663990       -8.07906366381126
H           -7.62818094911728       -4.92015586534395       -5.85130327338826
H           -7.56301676666474       -5.27810050550379       -7.57217224186259
H           -6.12853484172879       -4.66982053345268       -6.75350562767617
