45
 energy: -67.961376900584 gnorm: 0.000950278937 xtb: 6.7.1 (edcfbbe)
C            1.32907126936942        0.00004279623775       -0.09268405001536
C            0.45193559077736       -1.19309428799139        0.26557973055615
C            0.62036735049139       -1.61270746079435        1.72276899240224
C           -0.12456545146730       -2.90075117781339        2.06734734802427
O           -0.44305395484352       -3.78769564296682        1.34165316409429
O           -0.44447221012565       -2.88084256941227        3.38838285302219
C            0.05800645007552       -1.69335990570983        3.98368973412974
C            0.11465363550095       -0.67967378398342        2.83572767374019
C           -1.28622602055433       -0.12711898221188        2.48391241564725
C           -2.06503073794211        0.31364007200463        3.66893919270755
C           -1.97333300380657        1.45881406650356        4.41251699793967
N           -2.89700394685334        1.38856452476965        5.40946913854646
C           -3.54796207624463        0.23707941366206        5.28122494130694
N           -3.06232857819464       -0.43729853517090        4.24081952868790
C           -3.52267987600864       -1.72800353757168        3.79529161892572
C           -3.19362159084628        2.43040180448754        6.37386730987521
C           -4.34208395831726        3.28111925166235        5.87545356555451
C           -5.63059567760360        3.07844625791292        6.35014690303900
C           -6.67405376043868        3.85220246215852        5.86875717988831
C           -6.44595623613020        4.81948483314205        4.90672816243638
C           -5.15741293982983        5.01466689758308        4.42797452962237
C           -4.10544932014333        4.24913215489353        4.90912556795961
Cl          -4.85038413060942        6.21417771925993        3.22943097010375
H            1.06106090248658        0.87846963783735        0.49040195260766
H            1.21356934328438        0.24294187381869       -1.14489054507850
H            2.37659908171617       -0.22567281507616        0.08907698859117
H           -0.59211929161399       -0.96774505754013        0.04577867457429
H            0.72939391475872       -2.04933171978122       -0.35115966968852
H            1.68490699726054       -1.81462439341490        1.89777403686338
H            1.06181410749761       -1.88334134547475        4.38098880919241
H           -0.59584340873677       -1.42291856059507        4.81369384591704
H            0.79930999567725        0.13699288675320        3.06016882660685
H           -1.16227461431787        0.71806092906700        1.80613305854770
H           -1.84773828639597       -0.90238678296205        1.96190496490183
H           -1.31696174022720        2.29648667723989        4.29367790163160
H           -4.34249443075171       -0.09840586786165        5.91897490864690
H           -4.26883191344385       -2.10453852795199        4.49131255712401
H           -3.97591252560976       -1.64700923208200        2.80572751642469
H           -2.69497841967435       -2.43857353033661        3.74379248558094
H           -3.45261065993315        1.96395512305330        7.32634779164222
H           -2.29621300296406        3.03777095169143        6.50407399414431
H           -5.82031841808393        2.33351485338100        7.10828256804475
H           -7.67228766651447        3.70128502353836        6.24811602640812
H           -7.25658862359278        5.42337139532681        4.53241919257641
H           -3.10892216707717        4.42574211071178        4.53552064654116
