25
 energy: -33.010519087899 gnorm: 0.000446141608 xtb: 6.7.1 (edcfbbe)
O            1.28944983479272       -0.36324920795248        0.73222281200625
C            0.67339641389133       -1.61741452258437        0.57477363776440
C            1.04029398209016       -2.13560333810968       -0.82399522865878
N            2.48131175799206       -2.25687911660883       -0.93929370449931
C            3.21214402944158       -1.16348143174395       -1.17721345991444
C            4.58662709198750       -1.23249225120910       -1.20523065646205
C            5.24502162645470       -2.44226883778471       -0.99358273328573
C            4.45341293913446       -3.58371863371166       -0.74785631746441
C            3.08091386555444       -3.43537674143360       -0.72382144489816
C            5.07311469147184       -4.91738992087731       -0.51852298661056
C            6.72307307068136       -2.53036270704754       -1.02499948630477
H            0.97529327598290        0.06017437140145        1.53758962876874
H            1.02555702822889       -2.32475754123116        1.34004323007862
H           -0.41844902050545       -1.54409029971718        0.63748610261763
H            0.56827773296789       -3.10255511139048       -0.99751150841384
H            0.68623870208137       -1.41685268820710       -1.56539339354187
H            2.68214641399606       -0.23581205117364       -1.32376823035811
H            5.15220075421873       -0.33449681607711       -1.39655220901685
H            2.43931432303210       -4.28324316694798       -0.53215466373391
H            5.66182703279723       -5.21408033895138       -1.38546000670392
H            5.75010936845086       -4.88096450872851        0.33349142703276
H            4.32040384239201       -5.67746273601409       -0.33377203358846
H            7.10089635635785       -2.89347758440078       -0.06936032148003
H            7.04494819386468       -3.24446616920757       -1.78253782549261
H            7.17294669264361       -1.56537865029064       -1.23653062784086
