41
 energy: -42.509644252050 gnorm: 0.000291964180 xtb: 6.7.1 (edcfbbe)
C            0.46685252869715       -0.46442594073168        0.51317373784452
C            0.19833198881430        0.88557353939541       -0.14065976195854
C            1.11239611799408        1.17343560458423       -1.33316705695664
C            1.02124547882166        0.16454477779455       -2.48142409857625
C           -0.37555299636870        0.00589440731515       -3.09560240780800
C           -0.94344156426086        1.27549830971820       -3.74571803611331
N           -0.87423523985646        1.35701440159475       -5.23505710391741
C           -1.58275021862129        0.19977801676962       -5.88257922763912
C           -2.94247603615875       -0.15911151577139       -5.30312666194255
C           -1.54689974788242        2.61305958878072       -5.72118267851531
C           -1.48208257905853        3.84875695117051       -4.83308575573903
C            0.54089748809159        1.29359292446240       -5.71920388767613
C            1.43554847497349        2.47426048958780       -5.37859842228905
H            0.20103897881780       -1.28890898934237       -0.14390803082607
H           -0.11933933884416       -0.56002190403814        1.42298444912710
H            1.51774797644692       -0.55664149661183        0.77550350030228
H           -0.84972256369465        0.94729412865290       -0.44250884436579
H            0.36377152815144        1.67107462020287        0.59888178251046
H            0.90190840847757        2.18406493715500       -1.69476436856229
H            2.14582986071424        1.17416529712281       -0.98203678178822
H            1.74822547950754        0.44835823898196       -3.24453818922356
H            1.32430687594066       -0.81250740805888       -2.10498639534759
H           -0.35118845197282       -0.82526763402791       -3.79958311040729
H           -1.05548843874220       -0.28923382696122       -2.29624680758167
H           -1.99432743701310        1.38661045343055       -3.48044979438275
H           -0.40868496464122        2.13446720899059       -3.34621193936356
H           -1.69222300022585        0.44911876645762       -6.94041896775548
H           -0.93608505092323       -0.67621441303933       -5.81863561355341
H           -3.62927822526100        0.68257511688848       -5.27627758177319
H           -3.38502101614809       -0.91672166634444       -5.94534512273552
H           -2.86301923303839       -0.58221210606170       -4.30649996011372
H           -1.11486725458050        2.84369390008754       -6.69660408875384
H           -2.60152228810749        2.38079550108783       -5.87209669890208
H           -0.47159570600537        4.14321013137564       -4.57376992951154
H           -1.92683072798556        4.66834991505772       -5.39342597865899
H           -2.06176455774609        3.73018027586556       -3.92246139517694
H            0.97947517451042        0.38462817334451       -5.30621568120974
H            0.50635201889997        1.18570944020747       -6.80602803814718
H            1.49191015362151        2.66131470257336       -4.31054066251496
H            2.44004436935595        2.23101882519085       -5.71732786483521
H            1.13383373528419        3.38177825714304       -5.89165652514980
