29
 energy: -41.540260327555 gnorm: 0.000204447941 xtb: 6.7.1 (edcfbbe)
C           -0.59614374468409       -1.80621271585278        1.26647132314683
C           -0.17520433841489       -0.56988128467566        1.73514008204126
C            0.97441560314508       -0.00490506284937        1.21863340154574
N            1.67883356150111       -0.62959869103217        0.26721856419454
C            1.28967391434363       -1.82236367481700       -0.19919697715940
C            0.15992112923749       -2.44316982973641        0.28825557639698
C            2.78255320067127        0.07576709274922       -0.35230814587598
C            2.20803218167487        1.05533390229890       -1.39249543078927
O            1.31792417159339        1.88999070349208       -0.70048097205964
C            0.44653098952484        2.69270690974014       -1.42022615745713
C           -0.53757835561511        3.32500671368035       -0.66750492012420
C           -1.45377193501544        4.15042154310942       -1.28837331419130
C           -1.39976198421917        4.34380868101973       -2.65979348792596
C           -0.41739185873029        3.71552001866155       -3.40182880489550
C            0.51260606797679        2.88831233931034       -2.79014479806561
H           -1.49131859078494       -2.26684928515749        1.65381839397048
H           -0.73025719954873       -0.04454579840416        2.49568118927409
H            1.33807368741831        0.95422493471394        1.55389850480842
H            1.89635038863670       -2.27596833284417       -0.96941144086846
H           -0.12803027921292       -3.40777651775260       -0.09788147221366
H            3.31965858969390        0.64453052893801        0.40883847797791
H            3.46270712400629       -0.62619464707600       -0.83433573305105
H            3.03475455633726        1.62438129631488       -1.83578440276591
H            1.68829732818801        0.50050825867236       -2.18664644316865
H           -0.56229908130124        3.16603542395416        0.39932951998872
H           -2.21214035554369        4.64219870133582       -0.69958420036677
H           -2.11729291569903        4.98595360596913       -3.14487246400706
H           -0.36268636410761        3.86772618012262       -4.46849558613269
H            1.28077450893154        2.42340900611725       -3.38834028222826
