57
 energy: -63.745098452297 gnorm: 0.000452987998 xtb: 6.7.1 (edcfbbe)
C            1.10068573448087       -0.46987530622337        0.44732915262924
C            0.83371074492150        0.74403608140134        1.32942410749274
C            1.20234112097468        2.06909782131684        0.66024915653552
C            0.41541733724083        2.39092666493319       -0.61181603080951
C           -1.09997140134328        2.49272820008404       -0.42732481483665
C           -1.55987636649281        3.54856262051556        0.58011782821871
C           -1.10185279747789        4.97605125449476        0.27403053175896
C           -1.53663481274030        5.51452353568294       -1.09049019498410
C           -3.04941110771938        5.55528565039247       -1.31509890238267
C           -3.82281003280112        6.43638935005910       -0.33202332331099
C           -3.39445482003394        7.90614940811091       -0.30664687504385
C           -3.45381924286835        8.61720112988606       -1.66149643364246
C           -4.83604602689083        8.64296793726417       -2.31323367014932
C           -5.86800997958689        9.48866482554618       -1.55329713311750
N           -5.51525859925505       10.89493275172936       -1.61221212716601
C           -4.78120865865402       11.45163771173320       -0.64194293701673
C           -4.36243488276090       12.76040465306825       -0.72050625054248
C           -4.69691657953599       13.54276021586909       -1.82828842228778
C           -5.46716249293527       12.92789154211266       -2.82375961243804
C           -5.85277190085496       11.61735463727213       -2.69024650635726
C           -4.26713001529271       14.95288855489345       -1.95616036315876
H            0.44683668277410       -0.47690134136549       -0.42110260292697
H            0.92754791436608       -1.38640634904293        1.00655375874532
H            2.13247459427305       -0.46979451705526        0.10237495397481
H           -0.21689807219830        0.75547519483738        1.62516546543586
H            1.42620337735918        0.65158667808219        2.24307056511359
H            1.06687994841274        2.87561830934519        1.38405753058675
H            2.26400268666360        2.04282276401102        0.40154943216837
H            0.79446054982382        3.33113362196048       -1.01889828161041
H            0.61497646657598        1.61983664738132       -1.35805983089058
H           -1.54944165742778        2.70085722488227       -1.40117975280387
H           -1.48604611028936        1.52506919996453       -0.10198089917417
H           -2.65090362560340        3.52011451741010        0.63204670215578
H           -1.18941313612330        3.28102162372337        1.57123940710478
H           -1.47688785863841        5.63331411572732        1.06243525058407
H           -0.01230035948214        5.01721074343297        0.31994647283753
H           -1.12073953365966        6.51779253770579       -1.21282836245550
H           -1.09760391677252        4.89357548325316       -1.87265538150080
H           -3.23834321590945        5.89164373064879       -2.33758247041322
H           -3.44615487329353        4.54225730861865       -1.23897687388704
H           -4.88791066199096        6.36651124015031       -0.56768223446766
H           -3.69805241248166        6.03678761821775        0.67508520887532
H           -4.01707421724359        8.42813215198785        0.42587381050627
H           -2.36751651736673        7.96766735841630        0.05487286854418
H           -3.07861890451414        9.63932914244671       -1.54578361743215
H           -2.77461452817399        8.11107546863010       -2.34701106495498
H           -4.74608933243661        9.02626121710008       -3.33232247693590
H           -5.22427120038364        7.62759703354321       -2.37658717349769
H           -6.85394814762180        9.35523706717076       -2.00247592519906
H           -5.91307871852360        9.17354944886724       -0.51061896085081
H           -4.53889061015361       10.83554695293206        0.21096484964582
H           -3.77402605674305       13.17511887850006        0.08254357861216
H           -5.76176848139866       13.48174062169642       -3.70110028353849
H           -6.44527731099128       11.12348246263238       -3.44614858065979
H           -5.13456234692593       15.60090036124009       -2.07874835992813
H           -3.69936625062172       15.28025526119377       -1.09056965995806
H           -3.65460938364572       15.07754098161374       -2.84910424116066
