69
 energy: -76.374356948547 gnorm: 0.000371442632 xtb: 6.7.1 (edcfbbe)
C            1.89329332759315        0.60548667776790       -0.56646294065840
C            1.63748914543132        0.29976918235714       -2.03758902123480
C            1.73997249869978       -1.18902683028401       -2.37270571438173
C            0.73590773985477       -2.08678279890868       -1.64621404564548
C           -0.73493437804831       -1.73827437207111       -1.88200478125188
C           -1.18451378756746       -1.77976890736238       -3.34375003708519
C           -1.00705579907351       -3.13145341035805       -4.03877227209639
C           -1.72101971170244       -4.30463941154349       -3.36372618215731
C           -3.23061864233687       -4.12696265703325       -3.19208282792222
C           -4.01319788431629       -3.90527325731579       -4.48886803534677
C           -3.83651988474278       -4.99245043012112       -5.55795780923044
C           -4.17591544600043       -6.42085454064061       -5.11486203925935
N           -5.55381542007264       -6.91759782851970       -5.39673254943113
C           -5.81121477125272       -7.01996974314774       -6.88036543054751
C           -4.88321657665896       -7.92976141454239       -7.64259531008156
C           -5.25839053099408       -9.24314138578755       -7.91503546619656
C           -4.42414770075585      -10.07750067081841       -8.63803489120773
C           -3.20676401872150       -9.60894792609323       -9.10271727500973
C           -2.83498525577364       -8.29789929889176       -8.85681616346568
C           -3.66903613753715       -7.46127137511196       -8.13589480255028
C           -5.72365775432403       -8.29307724632430       -4.81819954874361
C           -5.17613996770981       -8.60964121271043       -3.42256101372220
C           -5.80685763207673       -7.91938390148876       -2.20965889936759
C           -7.29982559191657       -8.18882668199615       -2.06435935024280
C           -6.56424994059364       -5.99672768822457       -4.85018828202770
H            1.11682881995559        0.18121885475211        0.06501539266581
H            1.90939455495690        1.68053278678425       -0.40385220811199
H            2.85263486596285        0.19861688496399       -0.25429527883384
H            0.65484111339994        0.67998635480226       -2.32314101277326
H            2.37744015570588        0.83172679161647       -2.64044573265823
H            1.62445788670331       -1.31303784146825       -3.45189025516282
H            2.74454240901805       -1.53381465458487       -2.11474874370694
H            0.91851407879046       -3.11980474323134       -1.95175537490856
H            0.92639317557438       -2.03591096981089       -0.57272810592692
H           -1.34752554315804       -2.42475987513757       -1.29239009767506
H           -0.92880877542596       -0.73490462956234       -1.49935261899791
H           -2.23505605614990       -1.48186360339172       -3.38763140197660
H           -0.62182150709402       -1.03586612137177       -3.90981329963646
H           -1.35417437511091       -3.03380551083922       -5.07061255432724
H            0.05647864048072       -3.37013935192777       -4.08439310735068
H           -1.51862380224998       -5.21240571682038       -3.93886490689467
H           -1.28957377509753       -4.45667345505715       -2.37361286495672
H           -3.62065104402666       -4.99750594987451       -2.65566601559616
H           -3.41325645855685       -3.26532975533298       -2.54970094542026
H           -5.06615831929605       -3.77699412880354       -4.23256767276999
H           -3.68265475682817       -2.96630932700953       -4.93387118970551
H           -4.40314130689239       -4.70174755726113       -6.44309426113074
H           -2.78601017714408       -4.99432298410417       -5.85065695475699
H           -3.49567813830450       -7.12833983658669       -5.59291200241532
H           -4.02518448453478       -6.47553908795873       -4.03867620510029
H           -6.83747265454937       -7.37478857002750       -6.99880891431720
H           -5.75060305471477       -6.01325604906848       -7.29553307399856
H           -6.21813896444776       -9.61250696646955       -7.58190704172058
H           -4.73055227117579      -11.09082716932221       -8.84463534077468
H           -2.55766986943819      -10.25832091148038       -9.66828879440034
H           -1.89815210119054       -7.92038932004684       -9.23556474557571
H           -3.37904975365698       -6.43325738158836       -7.97867981523001
H           -6.79106656788332       -8.51819770915990       -4.84006903140183
H           -5.21740989345224       -8.97545677601460       -5.50461024473131
H           -5.34773408136816       -9.68299939502139       -3.30539190498698
H           -4.09450719763553       -8.47203251542864       -3.39728468037509
H           -5.30150888087483       -8.31543976247937       -1.32698642403412
H           -5.61624157713946       -6.84404868069873       -2.21422939009938
H           -7.49128969169589       -9.25875945286920       -2.06303969475414
H           -7.65757457644727       -7.78334904096841       -1.12235563690463
H           -7.88196005873141       -7.73475957360132       -2.86204646307581
H           -6.39638588270173       -5.83822580492655       -3.78928131736736
H           -6.51605572869159       -5.03941233739599       -5.36350345295701
H           -7.56222025407571       -6.40822202679867       -4.99179192665632
