14
 energy: -21.240324162233 gnorm: 0.000530008982 xtb: 6.7.1 (edcfbbe)
C            0.89845591897755        0.01939722397362       -0.04307540060379
N            0.45020603185800       -1.24706171857592        0.45802318605592
C           -0.45580641002693       -1.49392949472338        1.40294297233216
N           -0.54225724764001       -2.82753592956007        1.53020580687257
C            0.34606760411849       -3.33963145894016        0.62978360866470
N            0.93760327649275       -2.37865920683702       -0.01363861889277
N           -1.25657258719545       -3.52049304607012        2.44820523869596
H            0.40284638528207        0.82800837378086        0.48765410482218
H            0.68211738250813        0.08802932731907       -1.10983831628140
H            1.97851196344256        0.09805065787083        0.08547064522576
H           -1.01104631028476       -0.76803759718514        1.96261480287939
H            0.53586499061360       -4.38182784959648        0.47267857306698
H           -2.08074224711214       -3.04787232272302        2.79641815009938
H           -1.40744875103385       -4.49193695873307        2.20798524706295
