47
 energy: -62.419486140816 gnorm: 0.000557640579 xtb: 6.7.1 (edcfbbe)
C            2.66222826009872        1.66347516520643        1.32055891953541
C            2.12019280314547        0.60281458555603        2.27104591723609
C            0.65401814015848        0.82245444111176        2.65689076779014
C           -0.28457607536060        0.61440485548382        1.47278123042471
N           -1.67903278977109        0.91579399244195        1.82945043310922
C           -2.64708308646702        0.91753733664315        0.72417240665038
C           -3.81875729110788        0.48762714649852        1.18345185221532
N           -3.72220341172717       -0.00666961275472        2.46559146445869
C           -2.31175567850884       -0.00489473107066        2.80752957139771
C           -4.75394513094320        0.16583254368117        3.45654515668622
C           -4.59410758467703        1.40322161041296        4.35147161053534
P           -4.02416457211934        2.91170940491682        3.44872782345385
O           -2.55812700648169        2.91313623762977        3.22987376084254
O           -4.78988160510614        2.97713840926761        2.06189607039380
C           -6.03128689129861        3.65528994911460        1.83764879273897
C           -7.17886261913543        3.07339524908378        2.63885666370340
O           -4.54828248246944        4.17607898856193        4.25281201987320
C           -3.68935389345371        4.88254250752641        5.15398568399039
C           -3.60870992012962        4.19782259040160        6.50454462999906
H            2.19763381434455        1.60252601125751        0.33992069372497
H            3.73115771443717        1.52483363790001        1.18730590737635
H            2.49857883037001        2.65963864217578        1.72417024257064
H            2.23274869987517       -0.38542248162444        1.82189559612840
H            2.71351500987809        0.61710566600203        3.18585539848862
H            0.39674100104533        0.12593884121768        3.45674177907659
H            0.53083668534421        1.83890120731085        3.03708812575253
H           -0.00370121995509        1.28532497385735        0.65951406611673
H           -0.22963064419880       -0.41586754290879        1.10920003842355
H           -1.76041152479369        1.87809381979388        2.27616163204069
H           -2.37184185895167        1.32086132121556       -0.22571012001085
H           -4.75123675297870        0.43777663915242        0.65576194077644
H           -2.12993973292302        0.32187634908904        3.83128628136233
H           -1.89935925420686       -1.01456955234966        2.65767046618357
H           -5.69781884373524        0.22220168624396        2.91277427399532
H           -4.78280433989249       -0.72656158965438        4.09182334157182
H           -5.53981328138202        1.61055811584222        4.84735540508909
H           -3.85209017351044        1.21883169560253        5.12907720229977
H           -5.90607921407558        4.71329884601922        2.07649034192840
H           -6.20373907023297        3.54661152476879        0.76433207809834
H           -7.00414158207276        3.22002060948264        3.70164915026568
H           -8.09846817580785        3.58375875864595        2.36666348752704
H           -7.29990297957266        2.01278312142032        2.43242224851617
H           -2.69612472275226        4.96561411605793        4.70511414743818
H           -4.13386316531834        5.87564117831817        5.24428916282914
H           -3.10949735876740        3.23564437516005        6.41058752879489
H           -3.04094932885682        4.81876231431383        7.19135000038672
H           -4.60431769581156        4.04458704608134        6.91324480828050
