49
 energy: -55.571218994176 gnorm: 0.000506044181 xtb: 6.7.1 (edcfbbe)
C            1.22866631177727       -0.11024693143351       -0.23574298992517
C            0.93566037556972       -0.51866524361832        1.20289529384042
C            1.30854423858407        0.55686355111289        2.22438422482496
C            0.55906364080207        1.88179960274184        2.07003623960683
C           -0.96409904382596        1.78017764429750        2.17187791222685
C           -1.48700895746248        1.19091804029708        3.48360418804139
C           -1.05231336882916        1.93736834027706        4.74646831704769
C           -1.45713146276662        3.41183274957305        4.79664458837773
C           -2.96238352857041        3.67307722959322        4.70143761530074
C           -3.80775436928479        2.97546207301435        5.77061350412959
C           -3.42396414161576        3.30453222419340        7.21327309022337
C           -3.61863760884350        4.77916170242666        7.58644775805074
N           -5.01757958652093        5.13825414551356        7.56338871322716
C           -5.90846772140759        4.90824377964524        8.56618141308846
C           -7.12988375485987        5.32194766517466        8.12866411107488
N           -6.96655518757902        5.79408106928391        6.86166858905881
C           -5.68127748824406        5.66815291980866        6.54050198636376
C           -8.00979688147640        6.33525205832325        6.03252343391000
H            0.58787492142550        0.70911776846025       -0.55205620417308
H            1.05752775414275       -0.94907430782216       -0.90642210559189
H            2.26519735891773        0.20300647791044       -0.33842809355788
H           -0.12061577478543       -0.77636535654211        1.30046419151021
H            1.51056831046815       -1.41776343083932        1.43680100693417
H            1.14171557698232        0.15890739304754        3.22774292557111
H            2.37769985503221        0.76438935226484        2.13402241491516
H            0.92885871407500        2.57398142636126        2.83011899769547
H            0.80425312635999        2.31729394228374        1.09982164557619
H           -1.38401985232484        2.77887849080696        2.02752256940460
H           -1.33533039366419        1.16073705770287        1.35370273314833
H           -2.57845121451906        1.15883718902118        3.43448155704977
H           -1.14446613873308        0.15865283798496        3.57034606667434
H           -1.46121912040833        1.41367708355938        5.61399556319429
H            0.03397769351931        1.88723226204890        4.83103967496572
H           -1.06536150922473        3.84747578460747        5.71937267059929
H           -0.97582276476501        3.93860775838578        3.97172322916975
H           -3.12275223305541        4.75482156553402        4.73880895676048
H           -3.31762772742508        3.33663401972454        3.72678307267751
H           -4.86187233640636        3.22028848672516        5.60423019325254
H           -3.71178277479743        1.89783973262188        5.64097784511478
H           -4.01613387210014        2.68598945857998        7.89090036445309
H           -2.37581609646339        3.05916487304010        7.37509337109816
H           -3.23815016292433        4.95830624984476        8.59384356606750
H           -3.08088814201601        5.41953469737652        6.88663278980282
H           -5.62186031193477        4.48110788666891        9.50573554297091
H           -8.07930679861571        5.31498184368224        8.62374948513032
H           -5.24574476408002        5.95839887489486        5.60412000640903
H           -8.50149708738499        7.16330650414343        6.54385981271427
H           -7.59008126912891        6.69407483489989        5.09549356292843
H           -8.75639443161674        5.56910662280044        5.81861459905230
