31
 energy: -36.524697636286 gnorm: 0.000222305325 xtb: 6.7.1 (edcfbbe)
C            0.76683255694957       -0.73772446348454        0.11690116205617
N           -0.21848074885038       -1.31239051475419        0.18191503861751
C            2.05722908759432       -0.10520634956651       -0.00026466912404
C            3.19008813006095       -1.00778815908002        0.53305324176478
C            2.99154463202877       -2.52020886042655        0.37882709125137
N            3.30600715108543       -3.15497367860016       -0.94066013678934
C            4.76675960582310       -3.05260399318377       -1.21842046608178
C            5.20720072339441       -3.85083650196295       -2.44022965648504
C            4.84852481979763       -5.32226314850872       -2.26933723491792
C            3.35111622514620       -5.45084815459664       -2.01365617488320
C            2.93160711525797       -4.59891589306026       -0.82065255473142
C            2.52225223871592       -2.52337943050812       -2.01579966189573
H            2.20237159167601        0.17244825577775       -1.04723409788118
H            2.03778366468930        0.82281682489298        0.57632167917004
H            4.13835852171699       -0.68016641221114        0.10754189185278
H            3.25725783264745       -0.84358885342046        1.61065663811106
H            3.62314635166712       -3.01483290350810        1.12042216062585
H            1.95084057099713       -2.75820407830361        0.61525902262256
H            5.29663085777883       -3.42991325089253       -0.34069171340450
H            5.02379522754261       -2.00121481504252       -1.35190135552211
H            6.28685926278071       -3.73679716931460       -2.53939037261986
H            4.75664654414398       -3.45411095517180       -3.35026110840673
H            5.12425105396721       -5.88105517468192       -3.16177640074680
H            5.40534156185182       -5.74218788643971       -1.42992312822434
H            2.79146387061727       -5.18328389709690       -2.91024869395432
H            3.09780958092008       -6.48527504868551       -1.78057650936685
H            1.85068783359228       -4.65629771446499       -0.67891435024684
H            3.41897132189197       -4.99061815890149        0.07490391940362
H            1.47810045907941       -2.44509466145788       -1.71681335562119
H            2.91351284375832       -1.53294349895694       -2.23202745253130
H            2.57755951167121       -3.11487145439372       -2.92495275203887
