19
 energy: -23.939695096400 gnorm: 0.000574342639 xtb: 6.7.1 (edcfbbe)
C            0.90234183984902        0.00692016687291       -0.10506087428340
N            0.55980309681375        1.07361977273054       -1.01033413699333
C            0.79703966969895        2.39941185955606       -0.78633560177438
C            0.33409525662228        3.08319381820625       -1.86486225288423
N           -0.17886604068311        2.16575598153204       -2.73443263935786
C           -0.03363480448845        0.94489374223067       -2.20327709755491
C           -0.46625492505157       -0.30836363661305       -2.85014511142276
C           -0.78236858315188        2.45415635537773       -4.00760418155180
H            0.02869106077719       -0.60830817519751        0.11055547708336
H            1.26668577857051        0.43465879541282        0.82607963442498
H            1.68566175363083       -0.62197641841064       -0.53096744524926
H            1.26786421014376        2.75770632151050        0.10559608877513
H            0.33472826746848        4.13416959043607       -2.06744387598333
H           -1.55132088036984       -0.32698678796066       -2.95926783050043
H           -0.03721270918379       -0.38767697562047       -3.84898265662638
H           -0.16135093195559       -1.17483691361214       -2.27233487203368
H           -0.24274084647211        1.94862778039608       -4.80957461045107
H           -1.82077516686904        2.12020624815402       -4.02194951721061
H           -0.75373604534940        3.52648847499877       -4.18494849640604
