37
 energy: -44.294014979321 gnorm: 0.000616662199 xtb: 6.7.1 (edcfbbe)
C            1.67179440381723       -0.40905664772452        1.74486140074103
O            1.07717852205466       -0.61003484174093        0.47835161646084
C            0.76523874248257       -1.95614323212418        0.21701603460025
C           -0.05324372358251       -2.08472632892476       -1.07300907998233
N            0.46504246532139       -1.33965303943500       -2.25389419140106
C            1.94661645195740       -1.49866858290883       -2.38736545998135
C            2.48197159338871       -2.91601370440125       -2.59635324750865
O            2.23306526721345       -3.33547715779637       -3.91550945985982
C            2.91510032575777       -4.52215653807356       -4.26796843150734
C           -0.16822512163272       -1.88745019628872       -3.49801073226390
C           -1.66770950073473       -1.69486273822559       -3.64523074406376
C            0.21471228069397        0.14580380380033       -2.15337997112097
C           -1.03133443318761        0.60693350820572       -1.41132609938601
H            1.85400101565533        0.65938337264892        1.82981738118130
H            2.61850932158708       -0.95267515699728        1.82601960379514
H            1.00379864668907       -0.73294120308276        2.54848839497525
H            1.68841692344416       -2.55349103918606        0.16784474899276
H            0.15272851613944       -2.37234147467147        1.03131392634191
H           -0.10364024472695       -3.14428369912003       -1.32877672448278
H           -1.06469163882749       -1.73189844860847       -0.88330904298135
H            2.26241497676255       -0.90789149124358       -3.25016354036928
H            2.40210267936873       -1.07808678840834       -1.49110222701718
H            3.56765992746139       -2.87531842261532       -2.41808580704056
H            2.05902770026891       -3.63600676781022       -1.87945887665324
H            3.99874777262122       -4.39023582035158       -4.19242005763343
H            2.61024102586349       -5.35763890736207       -3.62918693043183
H            2.64356489182578       -4.73200147992919       -5.29911450095069
H            0.33582085645992       -1.42017670711199       -4.34568556163231
H            0.06258789068412       -2.95149339233531       -3.54149372743888
H           -1.93977903821606       -0.65204944397665       -3.77313721361770
H           -1.97394577606841       -2.21980168883762       -4.54704539171183
H           -2.22740945115937       -2.11989558845692       -2.81722797044982
H            1.06427197621533        0.58583147848433       -1.63189469658350
H            0.20035549471436        0.52635740713640       -3.17584985326276
H           -0.93609731654956        0.42808926614365       -0.34495617375656
H           -1.10337845218625        1.68305500220003       -1.55254699418144
H           -1.95264497157010        0.16785668913117       -1.77792039982265
