47
 energy: -71.874083774851 gnorm: 0.000266438060 xtb: 6.7.1 (edcfbbe)
O            4.62041584152737       -2.80731805508591       -0.60953695331643
C            4.61510066660781       -1.82653482223400        0.08827910629772
C            5.24498736604784       -0.54948614597036       -0.29264788462541
C            5.45464361095037       -0.32262728450746       -1.65669466135737
C            6.01208845932450        0.86304334662482       -2.09232180645274
C            6.38038082061118        1.83232933917508       -1.17140000819781
C            6.20296994273872        1.60477798703474        0.18519254202935
C            5.63841217272547        0.42333999288516        0.62831216089416
C            3.86969648711078       -1.86173017708027        1.44151692586620
N            3.07373703208402       -0.68417899939018        1.67037745512866
C            3.09382956199538        0.10828198862442        2.80160818146809
C            3.79139752768855        0.02041838432749        4.00007063043094
C            3.55181646943021        1.00478882820395        4.93791938863687
C            2.65163728384186        2.04763573211061        4.70286110960372
C            1.95498490866876        2.14716964188738        3.51605631453912
C            2.19031357872355        1.15700468652407        2.57367372830278
N            1.67456742959472        0.96533418959874        1.30310613494825
C            2.20983175004505       -0.15348280288639        0.78680989639719
C            1.81956739394635       -0.78763211797637       -0.48936560299456
N            0.71990674272271        1.78456446393432        0.80142846309015
C            0.77078843547965        2.18547742548385       -0.41120667087437
C           -0.24091363568843        3.04391563027845       -0.96231989884561
C           -0.12061974333349        3.48576819924914       -2.28561276672866
C           -1.07847376934596        4.31842930646385       -2.82751775998333
C           -2.16337926186803        4.72002920094510       -2.06111115002109
C           -2.29264538061385        4.28600047667667       -0.74798451330850
C           -1.34195604841057        3.45277779751230       -0.19786589414950
H            5.16981752727279       -1.09417072081831       -2.35682096665961
H            6.16733579313676        1.02971438880122       -3.14691276067588
H            6.81929427514830        2.75866304429579       -1.50836711613526
H            6.51423605729160        2.34911387997547        0.90204190632320
H            5.54735200306727        0.25285372820787        1.69011063353164
H            3.24508108764873       -2.76182603446230        1.45191909312183
H            4.60522796522058       -1.95215666423813        2.24334039263162
H            4.48388120091117       -0.78055385682139        4.20339166353765
H            4.07194029551642        0.96658610445053        5.88173726669379
H            2.49821638823892        2.78851173824778        5.47079628758036
H            1.25365569810636        2.94089605573958        3.32102442272234
H            2.52821985241255       -0.55870746811189       -1.28653243204094
H            1.79354080232853       -1.87095991680829       -0.37903750781949
H            0.83314346457678       -0.44071641331680       -0.79440477564593
H            1.59848887375082        1.91688633686818       -1.07470466226047
H            0.72583432641121        3.17363627386610       -2.88004688752014
H           -0.98274274060028        4.65738571929111       -3.84724591509207
H           -2.90949371454299        5.37239499423086       -2.48783095088331
H           -3.13876664137039        4.60220871272077       -0.15800309565256
H           -1.42477815717076        3.10460388547382        0.81935893750437
