43
 energy: -52.086154049562 gnorm: 0.000420052490 xtb: 6.7.1 (edcfbbe)
C           -0.42083499862796        0.13831875595876       -0.23897546274134
C           -0.31301797761309        1.49419011042633        0.43622095921865
N            0.32299073212276        2.49430336038641       -0.39839758591974
C            0.68606263579076        2.38790894209031       -1.67271555059407
N            1.23691970478324        3.51219179181125       -2.11593368833254
C            1.25315784269081        4.41363152378655       -1.07293618536969
C            0.66002228154680        3.76424471034880        0.02637864077155
C            0.50805708878787        4.40581573256411        1.25006590668531
C            0.96754966469548        5.70349312290767        1.33485723530836
C            1.55845216332890        6.34858481443260        0.24384283292702
C            1.71271576848718        5.72204524877502       -0.97485205537387
C            1.83372824923464        3.70703928647967       -3.41530323403474
C            3.33470455011849        3.40425478192656       -3.37216461197092
C            3.63972075607834        1.93029390502749       -3.12238543404108
Si           3.19917630730578        0.70500998437061       -4.55484861513718
C            3.42969633266235        1.58449860023525       -6.22556976838744
C            4.35704270845534       -0.78961758511623       -4.37580302027975
C            1.38991734923451        0.08876891834191       -4.40015666980058
H           -1.05659162763459        0.18149341346059       -1.11951371728047
H           -0.86648072344685       -0.56469009774746        0.45880830789352
H            0.55982244091521       -0.24073954342921       -0.51641059211040
H           -1.30883558947933        1.86085843486135        0.70604804090532
H            0.27576357316606        1.40895383661300        1.35462918006370
H            0.55441334413082        1.51622447564240       -2.28422118178934
H            0.05091457502420        3.91533985405954        2.09345495404266
H            0.86914603320424        6.23813814226095        2.26592202967518
H            1.90201296939384        7.36377270588304        0.36200050944239
H            2.17046260404945        6.22557940354777       -1.81024691747998
H            1.34324198448892        3.04275514736534       -4.12676547572654
H            1.66255455847524        4.74271640659465       -3.71501835915563
H            3.76328552920556        3.70596107652400       -4.32647083230042
H            3.79308965204437        4.01939622441447       -2.59289759434957
H            4.71394373875725        1.84835728696071       -2.95851332163130
H            3.17905498709248        1.61574810432980       -2.18296449676980
H            4.42558528352437        2.00778762860466       -6.31475809788031
H            3.30804961175742        0.88018364645271       -7.04239920687796
H            2.71442887488920        2.38645984820133       -6.38489735391752
H            4.26663281667858       -1.25738258816508       -3.39976291619646
H            4.13412864730191       -1.54699509136957       -5.12052571230920
H            5.39636891667333       -0.50401180399125       -4.50511773791016
H            1.19357037231585       -0.36516860251589       -3.43202585425996
H            0.64399675366898        0.85854151152558       -4.58167280761267
H            1.21866951470533       -0.68449542483206       -5.14225453939998
