28
 energy: -33.425761472665 gnorm: 0.000652581840 xtb: 6.7.1 (edcfbbe)
C            1.08372962149120        0.17771462453870       -0.14828216769847
C            0.45232755562067       -0.83147636841283        0.80754993059721
C            0.77431212636982       -0.52319523099007        2.27940519630632
C            0.38422104904130        0.86667405818212        2.79309132918642
N           -1.04587155858138        1.03561349571659        2.92797644262132
C           -1.84759707172575        0.32976183276466        3.77070935095915
C           -3.12344806694151        0.76605817475311        3.58000465024209
N           -3.08084484599946        1.73355434265402        2.62289459088590
C           -1.81324002614114        1.87935313656925        2.24567943184675
C           -4.21353574721317        2.47158080232129        2.13164280495556
C           -1.04486919710923       -0.97399920333381        0.53111228700742
H            0.60443929359644        1.15231410501578       -0.08221571976415
H            0.97747237549739       -0.17049929757293       -1.17164904299824
H            2.14409442039342        0.29435437548622        0.05897555411639
H            0.91228801358507       -1.80529790703057        0.61135340857774
H            0.31040109903277       -1.28420047737586        2.90931391709768
H            1.85406092793190       -0.60758355635960        2.41106191825870
H            0.83308926260734        1.01421958196858        3.77942460672215
H            0.76055669138032        1.63918706655775        2.12238993449804
H           -1.46963965053261       -0.41406353412526        4.44168862775183
H           -4.03581938542713        0.45949885268194        4.04939895736528
H           -1.46528422754246        2.57660992236235        1.50795141432229
H           -4.58660202077509        3.14743576311238        2.90293413946262
H           -3.92743832836137        3.05405481584917        1.25877368016840
H           -5.01381295565534        1.78454632410520        1.85714292555435
H           -1.19084673942257       -1.45847262507035       -0.43034140584077
H           -1.52868043742070       -1.58643348594476        1.28916615422859
H           -1.54077217769945       -0.00647958842380        0.48528708356856
