28
 energy: -33.458247098552 gnorm: 0.000134472148 xtb: 6.7.1 (edcfbbe)
C            1.47508130797653       -0.56394766883546        0.06656387946768
C            0.43152409761752       -0.88126653072835        1.13284654213840
N            0.89585344787750       -0.52202083499172        2.46393136101007
C            1.52137697281643       -1.36486343505678        3.25251154210731
C            1.78626692092131       -2.80909831997141        2.96117425585723
C            2.77424370702457       -3.21185682617468        4.06609532806298
C            2.54119908564832       -2.17161286454315        5.16585364289703
N            1.96901014297731       -1.04664809727098        4.44936587695145
C            1.85187896956975        0.27382706829125        5.01937895022216
C            1.77554439125467        1.27907480890284        3.87500187029370
C            0.68643950749028        0.85348914961602        2.89732863935507
H            1.70877865036146        0.49730408647827        0.05006278613759
H            1.08928175782278       -0.84030314991788       -0.90983173802289
H            2.39462177870013       -1.11673430191664        0.24129874367831
H           -0.48233961572296       -0.31548704296081        0.94009586700407
H            0.18193563682207       -1.94251191140269        1.11395241683558
H            0.84992281943009       -3.36781964126480        3.04133640239824
H            2.19087666960668       -2.97142114110332        1.96427033774374
H            2.60866919240019       -4.22545733466891        4.41950103723770
H            3.79647225384788       -3.14384649086626        3.69539006174327
H            1.83252394512335       -2.52397799558238        5.92286071108843
H            3.46191151181909       -1.87277669771946        5.66877853918579
H            2.72416080096500        0.46416905133562        5.64831340848914
H            0.95846190071019        0.33017453118342        5.65098485568472
H            2.73610198220011        1.31345733623059        3.35803268524210
H            1.55878376753664        2.27300632767808        4.26081748767787
H           -0.30154376033527        0.93254961366809        3.36365089633247
H            0.69873215753839        1.49660831159140        2.01644361318081
