26
 energy: -35.133986132477 gnorm: 0.000678911857 xtb: 6.7.1 (edcfbbe)
C            2.14754300470201       -1.45808552424443       -3.31166817173573
C            1.53053035790834       -0.88684246614938       -2.08213437291302
O            1.46073656332655        0.28000330578144       -1.81610416487681
C            0.95060671975805       -1.94091731166737       -1.09005292483357
N            0.34980262863094       -1.20776017046699        0.02275042115927
C            1.11159177803716       -0.88985692252323        1.08219522514946
C            0.64328423289737       -0.11170439772434        2.11295980347303
C           -0.65729318134512        0.37343499356433        2.04818622007286
C           -1.42133516939977        0.05842876624279        0.94012370045993
C           -0.90801459535226       -0.72540287699054       -0.08695406894800
C           -1.73757837138520       -1.02030282481094       -1.28532528174177
C            2.02076937205334       -2.94585330574473       -0.66536699214385
H            2.19547570136631       -0.69240609593563       -4.08222827039915
H            1.60818080080079       -2.32753655644060       -3.67606110895948
H            3.17000404688644       -1.76188756365220       -3.08605271987494
H            0.15662238578263       -2.48875084083582       -1.60245594740808
H            2.11982753960273       -1.26827142170470        1.09600018105821
H            1.28778289307904        0.11765786987064        2.94556496195792
H           -1.05848037635392        0.99024562285343        2.83653565659981
H           -2.42904062260750        0.43199650297955        0.85194103872687
H           -2.70488034699037       -0.53522628339370       -1.19287774554979
H           -1.26021775253139       -0.64840578659541       -2.19155304719313
H           -1.91288226487290       -2.09052940551341       -1.40140881186920
H            1.67960767714537       -3.52740856261419        0.18859182634952
H            2.20168309550711       -3.63692756368380       -1.48377737510817
H            2.96774388335359       -2.47158118060206       -0.42072803145003
