69
 energy: -73.147174453334 gnorm: 0.000207622374 xtb: 6.7.1 (edcfbbe)
C           -0.36312558868439       -0.67609357495998       -0.36809668699746
C           -0.50405313813062        0.61380977929090       -1.18746560804983
C            0.61361808157895        1.62955488882836       -0.92533866331101
C            0.58193013478226        2.78841986725349       -1.92382380506134
C           -0.69006691844372        3.62888489232838       -1.83618510624353
C           -0.65079155483517        4.86083618075279       -2.74214908398513
C           -0.50082960461674        4.55758475260636       -4.23525283631338
C           -1.54003386919273        3.59355236723224       -4.81140144729001
C           -2.99446498218034        4.03778399003335       -4.64647055086770
C           -3.34224107546100        5.36351469083818       -5.32498293075969
C           -3.10724880951420        5.39779574566866       -6.83631065109613
C           -3.85099251899118        4.32316423333265       -7.63213179995614
C           -5.37111276049969        4.32597017692653       -7.45910038762131
C           -6.06331932455555        5.63351340056061       -7.84848015514288
C           -5.85732482201231        6.06496332239066       -9.30107833619059
C           -6.41196292241001        5.06625288402680      -10.30998406867540
N            0.12855755389910       -1.88323264909840       -1.10718464001741
C            0.28742119392765       -2.98180743100404       -0.10826478726745
C            0.63187366253171       -4.33188646121708       -0.72719519885379
C           -0.42284976022729       -4.73459217218786       -1.75163171261083
C           -0.56528105668323       -3.62988355046689       -2.79215462454212
C           -0.88354817219466       -2.29909534803223       -2.11992509657021
C            1.42322620303642       -1.58303659011747       -1.74061797869863
H           -1.32830130076963       -0.94475350683231        0.06526053433816
H            0.33043706670393       -0.49427931376262        0.45623353028477
H           -0.55098376043997        0.40542244812855       -2.25637858139866
H           -1.45348274512285        1.07771050465068       -0.92232143062708
H            0.50843782403706        2.02270524106948        0.08725247113327
H            1.59013847580079        1.14578043650016       -0.99221958506484
H            1.44108005518627        3.43305030139580       -1.73131094220624
H            0.69035187277843        2.38978371018123       -2.93427448281865
H           -1.55848535597411        3.02419857502645       -2.09905042303963
H           -0.82043825042199        3.96427570361232       -0.80457260901490
H           -1.56681126639881        5.43128420612580       -2.58238049797655
H            0.18377899810634        5.49691837028396       -2.43861961609883
H           -0.55511404364538        5.50260560982222       -4.77675493543695
H            0.49320220682826        4.14424174803211       -4.42252707573183
H           -1.32622590051959        3.46075985434012       -5.87338489751632
H           -1.42584509002580        2.61221787611234       -4.34130093172715
H           -3.63761286834058        3.25220760606251       -5.04915091649767
H           -3.22765926826934        4.12755175511704       -3.58298784754465
H           -4.39257432074747        5.58037103543884       -5.12167269800834
H           -2.75846883353341        6.16607316872561       -4.86950907294229
H           -3.40499083537171        6.38219045074006       -7.20139852878844
H           -2.03856729658296        5.29531202740503       -7.03901976163737
H           -3.61118311973441        4.45762205617944       -8.68845210984007
H           -3.47647145454725        3.33693402173735       -7.34647390442883
H           -5.78348343912837        3.51203746023048       -8.05897664796782
H           -5.61656383766220        4.10813412076432       -6.41712531505668
H           -7.13525536296072        5.51282928654975       -7.67096976328581
H           -5.71608226270602        6.43515510949547       -7.19349478515302
H           -6.36135995133163        7.02402072816720       -9.44248561022016
H           -4.79543219897759        6.22634063923251       -9.49436933312106
H           -7.46006320328281        4.85962393804140      -10.10385138814598
H           -6.33462789603455        5.46728474682842      -11.31793031398608
H           -5.86282674019005        4.12848390103885      -10.27791125756936
H           -0.65852409357867       -3.07499988301404        0.43023317978020
H            1.06013551863122       -2.68631907122860        0.60403695639842
H            0.66991687765847       -5.06399067451551        0.07966462913319
H            1.61962726748317       -4.31423611378866       -1.18826721210404
H           -0.13944249572070       -5.66866493936862       -2.23336391141350
H           -1.37971528577930       -4.89585142173046       -1.25215456387937
H            0.34024538436488       -3.55875375624239       -3.39525087959464
H           -1.38524194550127       -3.85972048303326       -3.47292229926069
H           -0.96835910727835       -1.51616439597015       -2.87352940650132
H           -1.84312505340353       -2.38393363734206       -1.60484342873911
H            1.30966557494125       -0.78655234681612       -2.47124528257932
H            2.13667862152630       -1.26862707588501       -0.98133133830277
H            1.81691288861889       -2.46040341213816       -2.24450156005906
