30
 energy: -42.385396607514 gnorm: 0.000806288780 xtb: 6.7.1 (edcfbbe)
C            0.52672880830483       -0.10411330961701       -0.30529547365955
C            0.59734844343301       -0.83207299493306       -1.63831947207461
O            1.09615021245089       -2.17242112769861       -1.49799713575526
C            2.42957075842258       -2.30602895371959       -1.40207214439154
O            3.20086360470970       -1.39321095465061       -1.39443780273195
C            2.82270790326197       -3.77106799310336       -1.30934651973780
C            2.33161280829955       -4.40493331619451        0.00562362711898
C            0.84867025456618       -4.35557051590865        0.10781255029138
C            0.19998487483382       -3.57435752184460        1.06892646163828
C           -1.17230285227874       -3.51589977694484        1.10047504588438
N           -1.92108614978639       -4.20156202075249        0.22561050410165
C           -1.33185597389220       -4.97758525501078       -0.69248542655573
C            0.03640142400860       -5.07632102049366       -0.77281417033986
C           -3.36198376809906       -4.11220998787303        0.30472811177775
H           -0.11549719490393       -0.63374727835770        0.39549061506568
H            0.12666996664036        0.89235101765184       -0.46547777416379
H            1.52211241496335       -0.01000775175906        0.12067292458203
H           -0.39172531873501       -0.94882049800469       -2.08515912689479
H            1.25175691686403       -0.28756615703958       -2.32422850235861
H            2.40207735629619       -4.29501292637522       -2.16807465721385
H            3.90962639036824       -3.82881066935790       -1.35263272492922
H            2.66220870592202       -5.44623405498713        0.01900028656011
H            2.78969212468960       -3.88568999560494        0.84793381135286
H            0.77132874285303       -3.00385708838781        1.78456930658414
H           -1.69697325111797       -2.91291206595683        1.82760899914308
H           -1.97457420993139       -5.52036956846068       -1.36970808809205
H            0.47473597947808       -5.71248804418423       -1.52544872930234
H           -3.82036130608780       -4.55416291382648       -0.57693158041401
H           -3.72286214546521       -4.64216815083973        1.18838698634326
H           -3.67253552007597       -3.07027910575896        0.37906009817225
