23
 energy: -30.728864142782 gnorm: 0.000683854871 xtb: 6.7.1 (edcfbbe)
C            0.83298250417056       -0.80737940691941        0.38285434416729
C            0.32552999822506       -0.02099173026846       -0.82036882361586
C            0.78158121463832       -0.60112278815698       -2.16026894700277
C            0.33622227956001       -2.05112424795172       -2.38772713890644
N           -1.09350138336048       -2.17980310822080       -2.27726414586581
C           -2.03959685279420       -1.71879505672767       -3.11037613529400
C           -3.24558386495620       -2.02982013549981       -2.52663094577045
N           -2.92078796901053       -2.66015049185168       -1.37421533596786
N           -1.63138346182408       -2.75136726994338       -1.23201765956166
N           -3.75381973997733       -3.07268023937738       -0.40661094294857
H            0.37097841771937       -1.78951003925718        0.44659120624764
H            0.60036564384449       -0.27001594358861        1.29754174552604
H            1.91133755794374       -0.92929142973839        0.32979864704348
H           -0.76567302021068        0.04000185078183       -0.78696014815851
H            0.70256319030842        1.00030546529064       -0.75996640008447
H            0.40884309227246        0.02691806990573       -2.97147285903116
H            1.87063074069017       -0.59019090551756       -2.20525075398111
H            0.64449557202681       -2.38422396563439       -3.38114468061043
H            0.77219823738502       -2.70637147178681       -1.63343895378751
H           -1.82375288360962       -1.21991339219975       -4.03237879804218
H           -4.25180802693882       -1.84755621806347       -2.84110924727471
H           -3.30056594783872       -3.64185100752424        0.29863354745778
H           -4.66052529826647       -3.39796653774941       -0.71536757453680
