65
 energy: -67.816362631920 gnorm: 0.000820078960 xtb: 6.7.1 (edcfbbe)
C            1.78177962483912        1.29956831547319        1.88111025633005
C            1.71193288384529       -0.19865139203546        1.60763300930815
C            1.29762978109597       -1.01112636202897        2.83646298905652
C           -0.15845025301340       -0.81164372676258        3.26845989037212
C           -1.28214261267500       -1.26917778391427        2.32934270713331
N           -1.57436538242078       -2.73568935994884        2.19857312590148
C           -1.37651830396796       -3.44888962099023        3.50654800460935
C           -2.17192421521050       -2.91430852912700        4.70887487694046
C           -3.13908294638301       -3.95186440402064        5.29301802400018
C           -2.44723957788856       -5.14311311532707        5.95987008804507
C           -1.66215691348744       -4.76202004649790        7.20910910604671
C           -3.00649465756237       -2.94753194460222        1.80689320088247
C           -3.63463984571327       -1.95651158488211        0.82311183132611
C           -4.90214837379526       -2.55232183105978        0.19748191751097
C           -5.99591331197126       -2.93332449619290        1.19738082465602
C           -6.48810273138569       -1.75873317700608        2.03449836052946
C           -0.63508272061219       -3.40699366832567        1.22356725096171
C           -0.96247133675438       -3.42702254289652       -0.27536808078772
C           -0.47397302033572       -2.23077682591319       -1.09984569259646
C            1.03094358720568       -2.26613970453712       -1.38431063453029
C            1.40746918054299       -3.29429268339393       -2.44423509306242
H            0.80319331667049        1.71184863260547        2.11426307488575
H            2.16241286405943        1.81853191035060        1.00597725950153
H            2.44996496156001        1.50426392343518        2.71385788562924
H            1.02801244795617       -0.37930651249269        0.77735794070295
H            2.69993906742182       -0.53937761696223        1.29330069711210
H            1.52078279681518       -2.06829872650824        2.67591746305515
H            1.92199932283281       -0.69215954572931        3.67360144122749
H           -0.29229148483940       -1.24173647017216        4.25853656546932
H           -0.31304900745407        0.26319284991450        3.38218615840114
H           -2.19561778757635       -0.80000717033957        2.69504999545401
H           -1.09225758954683       -0.88577684755831        1.32899069028398
H           -1.66958624445085       -4.48781241486985        3.33974657973642
H           -0.30810641808870       -3.43696193789188        3.72207587027687
H           -1.48373000408907       -2.61916209206856        5.50053532717624
H           -2.73906574568863       -2.02256817803866        4.44344104418603
H           -3.75838516076067       -3.45324474329639        6.04040963717240
H           -3.80697231500367       -4.32263729328738        4.51128160053542
H           -3.21871180202281       -5.86190300931807        6.23972615023967
H           -1.78118847379094       -5.64273847135624        5.25276822513364
H           -2.29712524268129       -4.22595031193479        7.91000637279050
H           -1.29384377451404       -5.65721342094550        7.70195660978240
H           -0.80382752141820       -4.13792019150755        6.97132597608227
H           -3.07614040405046       -3.95967628491382        1.40262123020895
H           -3.60035068319154       -2.91846503583631        2.71894187096983
H           -3.90536961990376       -1.03166365438955        1.33177959105807
H           -2.95140514769666       -1.69834910817364        0.01698448228930
H           -5.30797880395856       -1.81431032831416       -0.49586746276211
H           -4.63647042090847       -3.43662224724435       -0.38683011224858
H           -6.83754346718749       -3.33002056407963        0.62798328164926
H           -5.65005079445843       -3.73528812223328        1.85315701597812
H           -6.79233112866826       -0.93600325980316        1.39248453812993
H           -7.34683638313634       -2.06003931126399        2.62805001115448
H           -5.72267303317155       -1.39794216056269        2.71882207853796
H            0.34458520293605       -2.95311367060389        1.35735263983693
H           -0.56871575315860       -4.44943984574796        1.54031507213610
H           -0.45798362711117       -4.31051963698771       -0.67110984313657
H           -2.02339336025756       -3.58921473113038       -0.44661034134682
H           -0.99914992860462       -2.24199988243737       -2.05661243597381
H           -0.72854195935278       -1.28743700537700       -0.61257369055640
H            1.33974281758353       -1.28056868212400       -1.73566621189276
H            1.58591540212385       -2.47533160272095       -0.46770701725916
H            0.87799529060568       -3.09492789776688       -3.37259241912930
H            2.47424050069052       -3.24712422475272       -2.64503424211849
H            1.17222024115245       -4.30679062152072       -2.12488656296898
