48
 energy: -54.225292332911 gnorm: 0.000652568566 xtb: 6.7.1 (edcfbbe)
C            0.78136198754168        0.54378970103911        2.60661675989806
C            0.39091145552164        0.84600360570329        1.16192444884820
C            1.07011641345757        2.14475160760622        0.73069035584355
N            0.63931104491701        2.74584608937919       -0.56700297488762
C           -0.85273379517660        3.11202653631836       -0.48426682999863
C           -1.33465033459488        3.56576587335015        0.88149178367903
C           -0.88368724272606        4.71391628939007        1.52652007789694
C           -1.40705628062291        5.08871427615919        2.75218142222473
C           -2.40363199563618        4.33719376685832        3.34940058779651
C           -2.88451679211865        3.21137599906723        2.70437877903173
C           -2.35445168478383        2.83290572589561        1.48413817730292
C           -1.30276354097450        4.13095258257593       -1.53158002486710
C            1.45200985818462        3.97449105105394       -0.85859428056507
C            2.89622733353355        4.04312092176263       -0.35605383405544
C            3.54967783139467        5.30283661378775       -0.92194646681658
C            0.75429838701125        1.76449287492351       -1.69718333329453
C            2.13575587963566        1.38274231814860       -2.23883277700731
C            2.92244313277319        0.35553410857782       -1.43127059223534
H            1.86060230974790        0.47209870492726        2.71116950829341
H            0.34721537203269       -0.40087919181859        2.91881727167563
H            0.41851268279929        1.32186072952801        3.27344508792083
H            0.71161854280742        0.01327759460329        0.53658136088399
H           -0.69273650919829        0.92566895565411        1.10984546813894
H            0.89736153171532        2.89726596761277        1.50232336061707
H            2.13885600170131        1.95587431462216        0.67050451417709
H           -1.37133310321723        2.17388971966195       -0.70204395934049
H           -0.12233776313881        5.34454083741282        1.09362997132089
H           -1.03631703220206        5.97910328302490        3.23575046914483
H           -2.80990856242362        4.63506226031051        4.30268384467832
H           -3.67462905765167        2.62573082325731        3.14733519991788
H           -2.75950529160030        1.96291593549733        0.98630315899872
H           -0.97708540462350        3.88222812156402       -2.53806751088528
H           -2.39088149176152        4.13397918324638       -1.53295213075399
H           -0.98305688664537        5.14182896423511       -1.29785348173288
H            1.44891093363282        4.11478350942539       -1.94057074387082
H            0.93577152958637        4.82272882086092       -0.41674260274047
H            2.92015237478289        4.10225542884823        0.73252047962492
H            3.48474107358468        3.18133564941613       -0.66540918283463
H            3.00576376055079        6.19433171628027       -0.62024801964395
H            4.56733916713789        5.38719514994881       -0.55334671848942
H            3.58421210910550        5.27202976526223       -2.00829885871983
H            0.24031925582150        0.85241996301280       -1.39217929060781
H            0.19721485397949        2.19676696004389       -2.53002240692516
H            1.93635604029055        0.93673284492827       -3.21661351152107
H            2.74620462585214        2.26452072463366       -2.42465604412602
H            2.31498804388645       -0.52195049087474       -1.22536705475280
H            3.78111307472617        0.03161997897269       -2.01344457801850
H            3.29943616135166        0.74680383430628       -0.49063487916109
