24
 energy: -25.689384012483 gnorm: 0.000345805340 xtb: 6.7.1 (edcfbbe)
C           -2.16716988940230        0.00826975521113        0.74539599039678
N           -0.88891979123619        0.00225176238378        0.00916973495431
C           -1.19111901064587       -0.01174377730442       -1.43300147154020
C           -0.11525147277215       -1.21077593639423        0.40194938569257
C            1.29393880569828       -1.24429509437733       -0.17906422072507
C            2.06666249657790        0.00672242659827        0.22544870228110
C            1.29187600400313        1.24845204361595       -0.20302353430090
C           -0.11717165949243        1.22375707209295        0.37874852737075
H           -2.74674363421553       -0.87966955807821        0.49835836509325
H           -1.98973795483674        0.01916253288472        1.81950787328218
H           -2.74857018941929        0.88990430909155        0.48070590429226
H           -0.27845309376651       -0.01737615730127       -2.02128576022296
H           -1.77060646314576       -0.89911195710398       -1.68138309200428
H           -1.77075514360143        0.87054374281745       -1.69853961166117
H           -0.04673817965719       -1.21670499314164        1.49224163497548
H           -0.67810645714905       -2.09184839494123        0.08779077394906
H            1.26963056195085       -1.33954695001050       -1.26482873966474
H            1.79154029950614       -2.13341415229451        0.20833770050282
H            3.05126334246599        0.00306684426625       -0.23851528638689
H            2.21056207359064        0.01724642221234        1.30719168059566
H            1.26726789009089        1.32271009386410       -1.29041641645014
H            1.78805774607890        2.14568473015592        0.16710499323563
H           -0.68149526731596        2.09780920153967        0.04805757343603
H           -0.04849101330632        1.25046603421327        1.46871929289848
