35
 energy: -52.365433931935 gnorm: 0.000954326635 xtb: 6.7.1 (edcfbbe)
C           -0.23873002970847        0.87741792666375        1.19957860492458
N            0.19270722501816       -0.27277208862823        1.94567432047591
C            0.63524658513354       -1.41848890202151        1.44075805480207
N            0.91731876096302       -2.25740106291655        2.43543537902548
C            0.63934555331586       -1.63041053570796        3.60956605652742
C            0.18871071197646       -0.38244374584978        3.30354109159760
C            1.31263759488828       -3.63458260994640        2.25633495342414
C            0.25256734563821       -4.34751840270252        1.47021195337457
N           -0.65449790296454       -3.65759356266768        0.74475482179776
N           -1.43803199655049       -4.48615441127074        0.16039319496405
N           -1.07523688978156       -5.71226668323400        0.46978781051877
C           -0.01237310922011       -5.69102772183226        1.30166084553821
C           -1.77102588635688       -6.86390348889007       -0.04870138009337
C           -2.16969646586468       -7.80159746332196        1.06358800056947
C           -1.68006537459204       -9.09918964406678        1.10770506170605
C           -2.05464109304247       -9.95086723124471        2.13320601933001
C           -2.91215295539935       -9.50739275120342        3.12507682841386
C           -3.39787547451448       -8.21035457010943        3.08968147146681
C           -3.02983876515156       -7.36046429794066        2.06241475364242
H            0.24191119862639        1.77617730148026        1.58544660108693
H           -1.31991865027652        0.99685665033464        1.28538012560469
H            0.01824295977630        0.75344135155475        0.15019784990269
H            0.73020343474877       -1.64670283333506        0.39762958949338
H            0.77708205651689       -2.09737951946678        4.56297540940021
H           -0.12763613873469        0.41318717481694        3.94621341743900
H            2.26759968002393       -3.67196634185303        1.71878734656336
H            1.44773611291269       -4.10059078998250        3.23455169074332
H            0.44749109426801       -6.57448858798949        1.68863354665761
H           -2.64819591384055       -6.47816313988316       -0.57531339658129
H           -1.12496954483598       -7.37791767384754       -0.76726799492825
H           -1.01324924371235       -9.44979337331851        0.33311966373947
H           -1.67646226060841      -10.96132390061350        2.15501049685093
H           -3.20546084497468      -10.17244851202104        3.92241320844618
H           -4.07043107488911       -7.86281408024082        3.85890741367340
H           -3.41658069884508       -6.35144247873567        2.02788718992287
