46
 energy: -56.454591180551 gnorm: 0.000416022511 xtb: 6.7.1 (edcfbbe)
C            1.16793585757096        0.10108279131214        0.17496409446495
C            0.62022010123455       -0.56680140329632       -1.08013923431887
N            1.01692790437924       -1.98726802590949       -1.30975886200317
C            0.47031313443633       -2.85673762185423       -0.16918528048292
C           -1.04664263727278       -2.87354615134295       -0.12784901377372
C           -1.72231203414210       -1.99511236284114        0.71494018822466
C           -3.10360624883899       -2.01034488298118        0.80156959211061
C           -3.83701796068330       -2.91245203105942        0.05125935910259
C           -3.17718610643050       -3.80741297416617       -0.77360557888552
C           -1.79642938008541       -3.79227445589666       -0.86010701448239
C            1.03174856148598       -4.27757398173469       -0.15118576675055
C            0.39673479683731       -2.45353594289038       -2.59711639333394
C            0.83537252866468       -1.78599363438581       -3.87368630341187
C            1.78600781149962       -2.39863095019205       -4.68673268655010
C            2.15559038438959       -1.82738233851930       -5.89128614984360
C            1.57509975538564       -0.63878206737322       -6.30221724786252
C            0.60833955734350       -0.03684586547535       -5.51468619198085
C            0.23191438217878       -0.61146389966417       -4.31276083082025
C            2.50661005514772       -2.12921638182782       -1.34211649021746
C            3.29716606740091       -1.06280102229524       -2.09168891381896
H            0.75034743481890       -0.30836137335655        1.08944100985314
H            0.88381123754932        1.14996690564215        0.13567977168274
H            2.24949830233419        0.05661037732178        0.24379775711785
H           -0.47120937034360       -0.53920644211051       -1.04563010118203
H            0.95182679897132       -0.00546926537865       -1.95370261993105
H            0.82021703493080       -2.36590467641381        0.74263321046627
H           -1.17229192433991       -1.30037139025626        1.33199741682391
H           -3.60337672746794       -1.32084659237822        1.46365860184132
H           -4.91310182473054       -2.92790595591063        0.11876692210623
H           -3.73684907355979       -4.52797645743866       -1.34904844363785
H           -1.31404379466305       -4.51707682934160       -1.49667197925091
H            2.08549586825579       -4.29991400414048        0.11084382786487
H            0.49517577358784       -4.82983056439316        0.61738109297919
H            0.89432553408070       -4.81022984020342       -1.08694723698735
H            0.61026456402502       -3.51906420829012       -2.68345179647639
H           -0.68206817403090       -2.32296292665221       -2.48898944358460
H            2.23786761990025       -3.33145812091795       -4.38091319377951
H            2.89125822361118       -2.31486440548333       -6.51135178379326
H            1.86283620804516       -0.19268033064011       -7.24085284478290
H            0.13477888318748        0.87563697551028       -5.84112087430282
H           -0.55286228402092       -0.15212448278004       -3.72929592514273
H            2.85357500473933       -2.14536823628643       -0.30716100166874
H            2.72646735238619       -3.09735461509833       -1.79212039704912
H            3.24771102033137       -0.08718301594556       -1.62028348958272
H            4.33933408483480       -1.37459694779780       -2.08252272315569
H            2.99226569706614       -0.96680037486423       -3.12726703179179
