36
 energy: -54.095866440397 gnorm: 0.000935985593 xtb: 6.7.1 (edcfbbe)
C            0.97116460487740       -0.68336562853843       -0.02068179574958
C            0.34494869177841       -0.36051663757846       -1.13591551038009
C           -1.14316061276348       -0.17498805659042       -1.23618660124852
N           -1.47004743809350        1.10304620548449       -1.83862738863431
C           -0.91731204697047        2.26624123800100       -1.51092600356400
N           -1.39684734884816        3.25856501534931       -2.25247415676799
C           -2.32839401599104        2.72295275943778       -3.11715784043467
C           -2.37474239230693        1.33905626350251       -2.85210976203500
C           -3.22298914554918        0.49678945378212       -3.56266209420562
C           -4.00784557322135        1.07549959119158       -4.53721331220972
C           -3.95421287207123        2.44640945436257       -4.80806398810286
C           -3.11893602761010        3.29200742311927       -4.10960783467339
C           -1.07612507552583        4.66455595758370       -2.08970759849486
C           -1.91374247192028        5.26166458283846       -0.98144942061405
C           -1.38877108700565        5.39743252200163        0.29785513496802
C           -2.15913884227548        5.91274289894436        1.32343756336032
C           -3.46977737447249        6.28821103655273        1.06860479220654
C           -4.00813872715619        6.15880297588093       -0.20341791986183
C           -3.22802873637217        5.64492989625371       -1.22177991768035
Br          -4.54024337259771        6.98441669405846        2.47589195986264
H            0.44670754474301       -0.82830985892580        0.90885002474628
H            2.03486512368747       -0.83881428421816        0.00272538500108
H            0.88424595880088       -0.23357879903692       -2.06463245523259
H           -1.57208922925655       -0.95674560921520       -1.86759166390091
H           -1.60251317361811       -0.23827500786446       -0.24495503184982
H           -0.17118156517831        2.38067541482342       -0.74704199842865
H           -3.27108920487752       -0.56154203947907       -3.36573304099316
H           -4.67945847925818        0.45630944683466       -5.10982669663146
H           -4.58337338614982        2.84974706313929       -5.58529228677381
H           -3.08129737708336        4.34544087455848       -4.33320216641083
H           -0.01398298626691        4.75331935364326       -1.85218575248107
H           -1.27102768947480        5.16836720863176       -3.03770650959879
H           -0.36514561793166        5.11607951142675        0.49751853594322
H           -1.74715272498965        6.02581723229411        2.31330713387813
H           -5.02565852114259        6.46109520159021       -0.39356959243573
H           -3.65005880791312        5.55121064615892       -2.21047219057221
