34
 energy: -54.014366462992 gnorm: 0.000681089288 xtb: 6.7.1 (edcfbbe)
O            1.97604749196237        0.72834690799034       -0.37287174173319
C            0.86936600046153        0.01027129754815       -0.38532331452097
O            0.74866361461666       -1.02774692677096       -0.98846506314643
C           -0.23107766654027        0.63945548635815        0.44701354277277
C           -1.47565754622626        0.97426892249811       -0.38480739789840
C           -2.06347042852850       -0.22629486405429       -1.13683452156757
N           -2.51605415131141       -1.25740557600379       -0.23320070189493
C           -3.74763885523467       -1.33358554554340        0.34452617990652
C           -3.74561341195488       -2.42753911618091        1.15476069423768
N           -2.50933158894125       -2.99306293504069        1.06566259073529
C           -1.78152657269833       -2.27022817996875        0.21845459102366
C           -2.07395366199675       -4.19466511063415        1.73797496181765
C           -2.38424025584204       -5.45546117181634        0.92164512465767
C           -1.67032051931429       -5.51161509402611       -0.43497323552557
C           -0.16529715789639       -5.38043221042306       -0.30310597852946
O            0.38825095350887       -4.41317980295427        0.16017384675610
O            0.47039088393123       -6.44483658620431       -0.75523408523538
H            2.68631991842892        0.32101660099758       -0.89674130502788
H           -0.48628779175667       -0.06041731926555        1.24620721944786
H            0.15886667368464        1.55092655729143        0.89779304441372
H           -2.23122109465817        1.39927526343292        0.27851399829033
H           -1.21887139266784        1.73099742082928       -1.12644977134200
H           -2.91234476194686        0.10304550165992       -1.73877330709292
H           -1.30286065822975       -0.65956800473910       -1.78851546407631
H           -4.52578518075048       -0.62660434234411        0.14165985293853
H           -4.52010190010234       -2.82613954388335        1.77755503234159
H           -0.75826220100148       -2.47352614704215       -0.05750236887714
H           -0.99757821271923       -4.11778201363912        1.90062428689078
H           -2.58237599345376       -4.25375699738428        2.70214301896718
H           -2.08337833406394       -6.31478830629193        1.52146819705409
H           -3.45978485492871       -5.52807501039221        0.74983772701712
H           -1.89136052147692       -6.46094112082858       -0.92052901821230
H           -2.01952389145221       -4.70224672328452       -1.08045198784609
H            1.43590306911163       -6.35676530988706       -0.68422464674542
