30
 energy: -33.921222006342 gnorm: 0.000597757522 xtb: 6.7.1 (edcfbbe)
C            1.14042271857489        0.40080131689616        0.05516269029771
C            0.78760343306652        0.85411482760251       -1.35683044761538
C            1.08911890728323       -0.15574684453297       -2.48295779335570
C            0.43046044986848       -1.55466902441824       -2.34590197238926
N           -1.05524743861488       -1.73495009135532       -2.40685503262963
C           -1.65777214278590       -1.01801080237287       -3.54476814566318
C           -1.30676087208946       -3.18074567480851       -2.58629095463648
C           -1.72084103577544       -1.31581786624302       -1.16091134776160
O            0.65547438735095        0.38379362827088       -3.72097015457300
C            2.60114234551231       -0.42824271610223       -2.54910834882037
H            0.59462269400328       -0.48795774233630        0.35941210145344
H            0.89633718430782        1.19496734591807        0.75539149704737
H            2.20367161958912        0.20007715240871        0.14336068439949
H           -0.25885868560149        1.16106897831250       -1.41120656619497
H            1.37135321498805        1.75093609735721       -1.57830822414980
H            0.83902395889969       -2.13804386387058       -3.17410796720305
H            0.77522253811166       -1.99626925280223       -1.41057328613909
H           -1.14203019692854       -1.27984516037199       -4.46587903411628
H           -2.70989757678700       -1.28134637859757       -3.63224598714008
H           -1.56341967624370        0.05591710438717       -3.41071259246912
H           -0.83977701060145       -3.75164169095118       -1.78528526389216
H           -2.37788270800970       -3.37648827108574       -2.57277438473144
H           -0.90732237843936       -3.52207705250815       -3.53940214991727
H           -1.32714745519770       -1.87580020517960       -0.31466535650827
H           -1.57342445267465       -0.25522285861780       -0.98311120580797
H           -2.79059003659691       -1.50625638124142       -1.23323061656828
H            1.24910600332735        1.09611955560041       -3.98235601747235
H            3.14656047960517        0.51227821050599       -2.55310001620683
H            2.94230026761931       -1.01513424678085       -1.70240698380915
H            2.84356146423842       -0.96456809308293       -3.46376712342694
