52
 energy: -74.247591612127 gnorm: 0.000687221799 xtb: 6.7.1 (edcfbbe)
C           -0.32376370822924        3.44529456234893        1.07766692031887
O           -0.32299881309335        2.11679668264982        0.59325325744812
C            0.40103113059152        1.15079090243928        1.17092724700253
C            1.33625206230027        1.50547568145922        2.26911091946642
C            1.69080535001336        0.55545661931150        3.13982945889899
C            2.64456024771507        0.67222330437504        4.22756872238554
C            2.64067674386284       -0.29003189808392        5.24223326074239
C            3.56697861247608       -0.24905920104809        6.26314795621265
C            4.54553831429047        0.74711669593010        6.29364452839919
O            5.43441470310844        0.74882189695304        7.34554509252887
C            6.79953772012971        0.41583156426626        7.16183555689948
C            7.01643248772102       -1.09614522715492        6.91334493071334
C            6.45473560452485       -1.70890919826563        5.62423216693220
N            7.05981136807609       -1.20762438871466        4.40942760726597
C            8.33199925840001       -1.34932161787590        4.04548466722039
N            8.52198689238869       -0.77257059152197        2.86261755806616
C            7.33313070180974       -0.24681580185154        2.45639224945631
C            6.41624148371052       -0.52112232043963        3.42593585419539
C            9.75375820396879       -0.71330647737877        2.12302607133680
C            7.55486022735132        1.30981502483460        6.16948380286774
C            7.68308887014253        2.74752345145155        6.68863338716025
C            8.78710483600839        2.90317714280972        7.72686882487659
C            4.52185242509404        1.74319777694119        5.31991746187523
C            3.58693149795622        1.69976939700244        4.30275590200096
O            0.29419143917750        0.01682798080593        0.77671809453049
H           -1.14231253400083        3.94274423843359        0.56041943049429
H            0.61219988290537        3.95666415941839        0.83525973880342
H           -0.50146562430227        3.48216499126005        2.15519532790136
H            1.72748092663039        2.51000126610374        2.31368000064685
H            1.21185664756596       -0.41060655614736        3.03529362521423
H            1.89475259004268       -1.07035570787703        5.22714877626944
H            3.54136014298093       -0.97803951928040        7.05962807023430
H            7.21413037986047        0.60498922930684        8.15950289809941
H            8.08781498126990       -1.29233006861636        6.98168907538830
H            6.53268423003618       -1.62790807670340        7.73446319961946
H            6.61910778854922       -2.79016948646122        5.66436891613962
H            5.38175375933116       -1.52272754581314        5.55632172431715
H            9.08560792064094       -1.85975322866102        4.61318750844986
H            7.21966861648337        0.27025107846210        1.52552672331550
H            5.37440931465758       -0.27331928850841        3.47940454644236
H           10.54552446755992       -1.21004244020999        2.67880896844338
H            9.63407231233223       -1.20499534807776        1.15697606942006
H           10.03667204541780        0.32525353245419        1.94857095218417
H            8.55543334245457        0.89528199151783        6.02314020940220
H            7.04261679565205        1.31248755700951        5.20567186309537
H            7.89539874878754        3.41059005840345        5.84709703111978
H            6.73217556679209        3.05333783947569        7.12793512085597
H            9.75294076875783        2.62939873414915        7.30707911059196
H            8.84138697758735        3.93619903535581        8.05818392604051
H            8.60087405330177        2.28178077073810        8.59882663663054
H            5.21251540587809        2.56921476711843        5.37120800262768
H            3.59575283324032        2.47527605601976        3.55266104941140
