31
 energy: -40.514966869889 gnorm: 0.000930118025 xtb: 6.7.1 (edcfbbe)
C            0.95596946326891       -0.51228205759662       -0.36238943208517
C           -0.20514897253003       -0.27977412467290       -0.18855453301442
C           -1.60931049811377        0.01128570186064        0.02236486531144
N           -2.23822327445599       -0.91131800616106        1.01383476577916
C           -1.54190093053625       -0.76446407977184        2.33615825486140
C           -1.62001438286265        0.58958648489432        2.84054272014154
C           -1.68346736142875        1.72221245949924        3.24632303641428
C           -1.75109006599799        3.04935153445383        3.72404594467856
C           -2.98002964829708        3.59958060521449        4.09216510593199
C           -3.03582278931911        4.89974599252263        4.55518679755844
C           -1.87676172847754        5.65369792986962        4.65727767956771
C           -0.65493467749376        5.10737418449357        4.29537142106019
C           -0.58508436941868        3.80997172659841        3.82679059870219
C           -3.65888283471251       -0.55926670487644        1.16794365992172
C           -2.11649942341239       -2.30167408699327        0.54786231873997
H            1.97506419219634       -0.70107768262202       -0.53055316355736
H           -1.70866906950820        1.03468174037665        0.39829768843899
H           -2.14366949919457       -0.07507611833520       -0.92802087907604
H           -0.49323630165699       -1.04531352981392        2.19890764710428
H           -2.00642556530749       -1.45577207745397        3.04549648643431
H           -3.87869237544620        3.00461834027156        4.01608947582844
H           -3.98535255816517        5.32622096531167        4.83957364702930
H           -1.92572920995154        6.66815110189663        5.02116740006676
H            0.24600475366547        5.69525555948721        4.37916563397210
H            0.36189462618104        3.37467821653803        3.54454665043769
H           -4.17116157548181       -0.61895262918891        0.20944242402809
H           -4.13836677903234       -1.24482141052427        1.86488426086218
H           -3.74650642177461        0.45339676019639        1.56000621869075
H           -2.64710791170093       -2.42761396951395       -0.39477400510444
H           -1.06766388022955       -2.55140452659334        0.39275626686571
H           -2.54134093080621       -2.98403829936436        1.28223104441060
