56
 energy: -84.322751408106 gnorm: 0.000782946206 xtb: 6.7.1 (edcfbbe)
C            0.00120946394276        0.31392056483138       -0.43892780518416
C            0.59566537356360       -0.64201248620568       -1.47400169180177
N            1.45660591821017       -1.69604332340980       -0.94706275575135
C            0.73701406177093       -2.75102516090061       -0.25895716643131
C            0.84461700043930       -4.06338937742335       -1.07131872943315
N            2.23045480942874       -4.37182054371674       -1.31571758430480
C            2.94534660146352       -3.99424320882863       -2.37940587654691
C            2.37762423383322       -3.32808921126528       -3.56506937940854
N            4.23589714783328       -4.32662693859541       -2.20061798970132
C            4.36760466410093       -4.91204263302631       -0.95181841218686
C            3.08034015625958       -4.94261229998385       -0.38968639949028
C            2.85408680974782       -5.47124071912794        0.87445666035918
C            3.95066450551308       -5.95652435262185        1.55770308259809
C            5.23314630557063       -5.91051252591023        1.00814316164252
C            5.46723138523997       -5.38947504699184       -0.24895989285062
C            5.32156139116560       -4.08186874925768       -3.12031849479363
C            5.16759960819969       -4.84148023580244       -4.46408323873212
O            4.63726759125330       -4.28733519995709       -5.39343234247304
C            5.71943875286070       -6.20567463888898       -4.55729680260047
C            5.90586481991283       -7.03385464604227       -3.44753825467905
C            6.42097207972972       -8.30364034507979       -3.61351426984495
C            6.76148804501216       -8.74003341536192       -4.88727921905567
C            6.57648202832296       -7.93630214870289       -6.00397088581532
C            6.04618692268527       -6.67334554280819       -5.83528831127171
N            7.31807891963214      -10.07794950359594       -5.05041166773002
O            7.41957471577321      -10.75129168297467       -4.05260446020811
O            7.63325815398201      -10.40870952812689       -6.16636359064829
C            2.63879063498773       -1.22909989685081       -0.23049988721038
C            3.58799277279534       -0.44522621379776       -1.12919750494249
H           -0.51358261640592       -0.23100557354299        0.34944619014989
H           -0.71532770336594        0.96955220286305       -0.92472366544230
H            0.77190356390550        0.93191519791994        0.01324730683066
H           -0.21470647926064       -1.13687369762787       -2.01713041153749
H            1.17597498302486       -0.06969008166166       -2.20059730226039
H            1.14194940754593       -2.91876701636895        0.74366007546380
H           -0.32447932900705       -2.51604737323929       -0.15409434661695
H            0.39100500888251       -4.88772468944444       -0.51895259047571
H            0.33407123459723       -3.95073557549192       -2.02713116226629
H            1.71748463458939       -4.01129317240061       -4.10178243848143
H            1.79390608764360       -2.46460912017667       -3.25108719564985
H            3.15090141240797       -3.01209796728793       -4.25858237277920
H            1.86841617770620       -5.49973387897633        1.30853456863025
H            3.81781047634607       -6.37409878406244        2.54263119324154
H            6.06313659348445       -6.28939584656876        1.58245265722864
H            6.46881827611098       -5.35120063744430       -0.64706006521569
H            5.35700116065098       -3.01477110916636       -3.36538618682249
H            6.25682882209815       -4.36223040630545       -2.63681879250393
H            5.62452511240253       -6.71195351402080       -2.45799524679217
H            6.56823321166650       -8.96627982564067       -2.77397398500433
H            6.84564426931746       -8.31196732567119       -6.97949432366570
H            5.88688052310136       -6.02382323655390       -6.68216078153846
H            2.37613438620968       -0.61612988139685        0.64347172961910
H            3.16386197328053       -2.11550011452079        0.14070507291684
H            3.17812642199132        0.52598444519849       -1.38770555642660
H            4.52650904452951       -0.28337231008693       -0.60595283003241
H            3.78760847343107       -0.99299169788335       -2.04718983215860
