51
 energy: -73.605811697247 gnorm: 0.000336534331 xtb: 6.7.1 (edcfbbe)
C           -1.02778233573955        0.36723945458693        0.35029447148706
C           -0.85540251983783       -0.98486095990099        0.04414167322976
C            0.40462344744609       -1.55887040793571       -0.11517879895079
C            1.51400921330101       -0.74170722926251        0.04134180305666
C            1.38542433380256        0.60697382040861        0.34591146102352
C            0.11074723024963        1.14252907351823        0.49617103550931
C            2.58902989399426        1.47171574149049        0.53049245255521
C            0.55199031851535       -3.01190209480672       -0.44971285321322
N           -2.01939612848185       -1.79689331970232       -0.10542618645279
C           -2.84806176696964       -1.77139532894824       -1.14139133785047
N           -3.86327943977549       -2.60185953267726       -0.91222371768120
C           -3.67619060952768       -3.17101142463209        0.31057461261918
C           -2.51491130260658       -2.67057450134210        0.81492459009439
C           -5.04102231821457       -2.69091331885637       -1.74265137640251
C           -5.71788606357038       -1.35276176601411       -1.74526822668040
N           -5.00409003006721       -0.21877916934675       -1.56968823011744
N           -5.79845116243624        0.78567916987417       -1.61252683455740
N           -7.02592104981233        0.35434528726471       -1.81078946848283
C           -7.04006301773763       -0.99253509292808       -1.90053405611914
C           -8.14481886838390        1.25882895477271       -1.90967054839688
C           -8.99266917810158        0.92836516351686       -3.11235285773732
C           -8.44001798427985        1.00094273470828       -4.38580905492969
C           -9.20263007797161        0.68281189863843       -5.49493356033018
C          -10.52310556841777        0.29301492031334       -5.34059283861144
C          -11.07821991040560        0.22045440824319       -4.07462951245345
C          -10.31413239917707        0.53234775561444       -2.96277326359737
C           -2.39502698212052        0.94582810191981        0.54455566356287
H            2.49818761302568       -1.16792437285251       -0.07908618962522
H            0.00428225091651        2.18941040634846        0.73641976663696
H            2.45150030473554        2.43241040609395        0.03974575532459
H            2.74637092375740        1.66263682322739        1.59186600037748
H            3.48089625943326        0.99487313825059        0.13437909553209
H            0.28317420819821       -3.63474664499062        0.40327705779234
H           -0.08668954997539       -3.29121469823000       -1.28694870631886
H            1.58117346179073       -3.23412769657850       -0.71481584997352
H           -2.72575863849970       -1.16631110147751       -2.01713074566803
H           -4.36274998602711       -3.87779343883031        0.72951284238706
H           -2.02284997454269       -2.86013392032363        1.74669831900654
H           -4.74685840846648       -2.96503622277800       -2.76223229248777
H           -5.70741090170165       -3.46127818347596       -1.35104892403998
H           -7.93032178146074       -1.55855093977354       -2.06982567345434
H           -8.74017422324985        1.19449127571931       -0.99318202089897
H           -7.72060114403627        2.26382950662365       -1.98385201003586
H           -7.41200390365186        1.31305880706267       -4.50567329872930
H           -8.76773826480552        0.74427535212931       -6.48077317511533
H          -11.11902939090678        0.04972040397157       -6.20650924755309
H          -12.10740785284460       -0.07919193632476       -3.94995527539930
H          -10.75109983487476        0.47661686359290       -1.97597856443366
H           -2.32197160096858        1.99620718626536        0.80834625877046
H           -3.00482968446123        0.86192968380584       -0.35446850543161
H           -2.91800560510353        0.42908696400916        1.34956034279713
