34
 energy: -55.493455986543 gnorm: 0.000584052008 xtb: 6.7.1 (edcfbbe)
Cl           1.13046071385521       -1.12634017725530       -1.70905560976350
C            2.69759956445977       -0.54214097611095       -1.32612100878004
C            3.02199573225153        0.78696053002781       -1.63915981978047
C            4.26324533406785        1.30976186942627       -1.35318723629840
C            5.18406290841060        0.46702110254788       -0.74000671006701
C            4.85692142574298       -0.86642957628850       -0.42725831074895
C            3.60689509920501       -1.39316760321825       -0.71732197322260
N            5.98291369910798       -1.42044486443453        0.15026109425485
C            6.06440663490352       -2.64539063321550        0.88818456293275
C            6.23874006889962       -2.27553992591192        2.39105476660724
O            6.50606916046132       -1.12664252454504        2.66203737571586
C            6.07845476269414       -3.34715721752934        3.36612740990251
C            5.97170315380318       -4.69779210065028        3.01541784428223
C            5.84243391091970       -5.65633944168303        4.00065415752898
C            5.80793521306322       -5.28832382584830        5.33892850285496
C            5.91163112545695       -3.95247056497068        5.69700518414615
C            6.05111492221350       -2.98818773702694        4.72027399101795
C            6.91323588913584       -0.46484519334920        0.22066252736553
N            6.48175684413749        0.66805473106367       -0.31912355150058
C            7.21222059886017        1.90027301478054       -0.43414740487364
H            2.27523904680121        1.40338613498309       -2.11264909508489
H            4.50582167768179        2.33090784433327       -1.59619840125341
H            3.33500479095765       -2.40983593775199       -0.48849498500401
H            5.15887902784430       -3.22849240863439        0.73012765970104
H            6.93633077239145       -3.22683725166604        0.57493482512382
H            6.00816264912308       -5.00846914057276        1.98318522726214
H            5.76901701146196       -6.69774882623759        3.72717214229195
H            5.70282231500331       -6.04504564253964        6.10085878696222
H            5.88647279635578       -3.66623877313934        6.73668004615941
H            6.13567926570984       -1.94341012562623        4.97792165115864
H            7.89809956444179       -0.60626162554594        0.62374782827850
H            8.21385523089517        1.77288296053663       -0.03046350882975
H            7.28068938173678        2.19812974462975       -1.48133544720204
H            6.70266970795241        2.68811416136162        0.12231747885425
