80
 energy: -83.248774316881 gnorm: 0.000304705545 xtb: 6.7.1 (edcfbbe)
C            1.68557068002252       -0.20834304746019        0.63670660663402
C            1.50220247623364        0.57667327112440        1.92992038276284
C            1.40323483125156        2.08728617974018        1.71128156005024
C            0.22118805466102        2.54065741181139        0.85096211682644
C           -1.15490242512136        2.12097926156471        1.37253609847789
C           -1.48213894946698        2.60405731729400        2.78644886913460
C           -1.41641791155367        4.11748801865803        2.99453905056118
C           -2.26921925419626        4.95512310455860        2.03663750615142
P           -4.08063982618692        4.90652830943873        2.26589968774482
C           -4.53046280096573        5.29300694980625        3.99747130780127
C           -3.74891272597349        6.40678773986340        4.70038365086300
C           -3.96523592825252        7.81626153721477        4.15113144604969
C           -5.41329163295128        8.31021030450525        4.18726092364468
C           -6.04963326313505        8.32698395392132        5.57951634111063
C           -5.30843148045618        9.16879436227954        6.62050356272856
C           -5.14033417610358       10.64441052896180        6.25479333490252
C           -6.46589017818849       11.37908212635432        6.09515946918492
C           -4.87434064131399        6.10073320322522        1.12336661436332
C           -4.21008157168831        6.26651700619308       -0.24532022415810
C           -4.23622618152185        5.01955819531897       -1.12749078249007
C           -5.63465047763060        4.52407758361142       -1.50364087713591
C           -6.50541635127832        5.54842232951550       -2.23551980142292
C           -5.91180543493154        6.08921767091381       -3.53813671101797
C           -5.62496163165481        5.02972786631671       -4.60343159136110
C           -6.87724641792748        4.30432889145200       -5.08121153022005
C           -4.82505156193384        3.27540431460890        1.96531174620532
H            0.80308753343716       -0.14464011319476        0.00470943877543
H            1.86470779570770       -1.25732294996344        0.85832475070103
H            2.53794120336832        0.17214430794484        0.07878936504881
H            0.61688368568535        0.21293430187568        2.45534262524102
H            2.36050987846169        0.38927588410783        2.57853329078705
H            1.36005328932079        2.58032840766566        2.68518422361954
H            2.31866562646033        2.42562805133398        1.22099958629109
H            0.26488203236367        3.62871800118551        0.75589123723465
H            0.33827410693790        2.13094285997252       -0.15320924709647
H           -1.91528750893974        2.47594974666144        0.67046758161255
H           -1.21553742560422        1.03228106317025        1.37182795443142
H           -2.47261728149874        2.23647246152792        3.06141052267185
H           -0.77447972629536        2.15123193150628        3.48176272228791
H           -1.69143326643619        4.33251260333259        4.02879249755986
H           -0.38251987937770        4.44143410501483        2.86371489280916
H           -2.00372251707191        6.01225216445608        2.15112290263585
H           -2.05836918415339        4.67317663867878        1.00347723214222
H           -5.60140815488410        5.51419271804017        4.00474996389845
H           -4.38722536847499        4.35931668641030        4.55157320554364
H           -4.04248789468179        6.39175442972921        5.75111724495027
H           -2.68076665110830        6.18549872942726        4.66577780918790
H           -3.35245239039795        8.49626152147215        4.74374200191524
H           -3.58935591680243        7.86997791320233        3.12460827986363
H           -5.43232867187603        9.32101565999593        3.77790769935294
H           -6.03957589699041        7.69366411113142        3.53550722425384
H           -7.06661317275010        8.70778021821958        5.47718916228116
H           -6.13210082639257        7.30531442473245        5.95872826571676
H           -5.86794404948537        9.10676689631217        7.55635559032967
H           -4.32205269121427        8.73828048778681        6.80801899928022
H           -4.56810685054087       11.12310936935265        7.05211489046378
H           -4.55654516433099       10.74108761163232        5.33715150892371
H           -7.07825972195443       11.25508139573342        6.98513451809473
H           -6.28932841466031       12.44155080923745        5.94874903078813
H           -7.02410083978453       11.01036323367295        5.23809911877219
H           -5.91238370872752        5.77791124431992        1.00719785737587
H           -4.88743783115209        7.06906541053637        1.62634554906726
H           -4.72692342281849        7.07526982555614       -0.76338028521728
H           -3.17456856258271        6.58704417039289       -0.11184085836317
H           -3.68849799533670        5.24620174289279       -2.04269781797912
H           -3.69827880337005        4.20809045762758       -0.62711997879976
H           -5.51789771593106        3.64385849444671       -2.13698338334735
H           -6.16931563504886        4.19851547043345       -0.60723684709107
H           -7.46410304421945        5.07649112047958       -2.45411908502640
H           -6.71422669633038        6.39339863574611       -1.57470544532328
H           -6.61975196467862        6.81064900209752       -3.95174362170230
H           -4.98867489934742        6.63267990533117       -3.32407831720647
H           -5.16294483486718        5.53011556780502       -5.45703966967250
H           -4.90258740847604        4.30249090609997       -4.22708954950450
H           -7.62294437930188        5.01882116652173       -5.42190566618363
H           -6.63439798319831        3.64446912463842       -5.91013081056056
H           -7.31399519673693        3.70109573978518       -4.28899468687457
H           -4.47836284912230        2.85238612623753        1.02584344666423
H           -4.58236994859145        2.59124451672191        2.77527520995433
H           -5.90772802546720        3.39395130020942        1.92367911210232
