63
 energy: -68.714741827180 gnorm: 0.000403005768 xtb: 6.7.1 (edcfbbe)
C            1.34887727466053        0.78900222317683        0.66362588113512
C            1.09934424962754        1.79686281524030       -0.45193371209693
C            1.37768891292380        1.23411120243073       -1.84647097898905
C            0.48781020828759        0.05972677062754       -2.25894378834105
C           -1.01195780394334        0.36185576905580       -2.29247565861256
C           -1.42072601306175        1.51708610124637       -3.20910031309782
C           -0.98554768194488        1.36908999278155       -4.66808357001294
C           -1.53183364609573        0.13186363069084       -5.38251498568084
C           -3.05573921658491        0.07696540896582       -5.50845033996769
C           -3.68510571440827        1.25024974236634       -6.26348977836223
C           -3.13028006402368        1.48545985990762       -7.67030367216043
C           -3.22060617431647        0.28379600349363       -8.61327070300410
C           -4.64386467425307       -0.18621104717358       -8.92387123048170
C           -5.45307032687053        0.80501318067112       -9.76962221188766
C           -4.94863247649580        0.92907994046013      -11.21374950095952
N           -5.78896477077165        0.26870763593403      -12.25829542544237
C           -7.17523425869319        0.82184702781274      -12.32399009992887
C           -7.30329349844615        2.34028220594155      -12.15797660039912
O           -6.47126750708996        3.00490920692040      -13.08065398111977
C           -5.12522986507915        0.47243219117206      -13.56446147654977
C           -5.87476297011857       -1.18159911024266      -12.00761381683713
H            0.64833562178857       -0.04027481208738        0.60828092547551
H            1.23111515662560        1.26524687202359        1.63424731918049
H            2.35955105217044        0.39171458733737        0.59825555348633
H            0.07062192438548        2.15684389706582       -0.39433534600815
H            1.75354504819541        2.65894886371452       -0.29917141393004
H            1.27319918593980        2.04072155814447       -2.57525742828200
H            2.41739362977051        0.89835732253340       -1.88365584678685
H            0.80934750306677       -0.28140924069314       -3.24569727970866
H            0.65108261737205       -0.77044658223775       -1.56921513503153
H           -1.53593425758705       -0.54659771695593       -2.59931528131594
H           -1.35241942872727        0.59632883797838       -1.28213454310545
H           -2.50726286363024        1.62263577562435       -3.16284247829159
H           -0.99526989774848        2.44539128716601       -2.82318427882946
H           -1.29189150353222        2.26681969352216       -5.21004040369477
H            0.10426678983560        1.32961021072534       -4.71132332918496
H           -1.08331004780689        0.08553768038273       -6.37781825368651
H           -1.20559702837790       -0.76123265033007       -4.84720850635763
H           -3.32625761154230       -0.86044169698116       -6.00127617867132
H           -3.49514502712052        0.04607255231149       -4.51024456328443
H           -4.76479770293519        1.08732129056776       -6.31441240840168
H           -3.53294887363419        2.16508937534633       -5.68890921672562
H           -3.65036047394057        2.34129432638859       -8.10840437296724
H           -2.07940000999725        1.76532151495351       -7.59076408787675
H           -2.70111738253342        0.53948429838677       -9.54079961517841
H           -2.68051805179436       -0.55124640080687       -8.16778193771322
H           -4.58963878351801       -1.15336728494723       -9.42817195296826
H           -5.17165351776938       -0.34333789968605       -7.98372168576849
H           -6.50437801913593        0.51781667838957       -9.74660722720544
H           -5.38826673067505        1.78236918005526       -9.29154332675976
H           -4.85238167017949        1.97471396971573      -11.50625786622439
H           -3.95605285760535        0.47907277955949      -11.27710443692690
H           -7.58489329102810        0.54238294287095      -13.29640201713578
H           -7.78420717314279        0.35543925225006      -11.54859671742770
H           -8.35908413360111        2.58035790970372      -12.33373052557048
H           -7.05667370899131        2.64129523803760      -11.13125664309174
H           -6.73636274171866        3.92714430083865      -13.15976045823160
H           -4.09786885248793        0.11675518878419      -13.52214271864604
H           -5.65229040491313       -0.07843989102539      -14.34092298984707
H           -5.13251135507786        1.53059673761855      -13.81722553329488
H           -4.87847094741016       -1.61956570567469      -12.03686769573396
H           -6.31615130583869       -1.37928814356007      -11.03370370334616
H           -6.48696685857501       -1.65774684827055      -12.77194043207636
