19
 energy: -21.407347540369 gnorm: 0.000692714316 xtb: 6.7.1 (edcfbbe)
C            0.83921393735881        0.09334216784385       -0.02866469533961
C           -0.35762417442631        0.09309164877510       -0.03715885249907
C           -1.80759423363963        0.09319036782109       -0.02676025147969
N           -2.38821195295920        0.06840961836317       -1.40411274056497
C           -1.93964205820265       -1.14870929774197       -2.10419018023372
C           -3.85776184263273        0.07023797173891       -1.30869733033481
C           -1.93961514650651        1.25950061012764       -2.14758872687702
H            1.88952304618847        0.09431755461699       -0.00549361276156
H           -2.16144979843270       -0.78552374246979        0.52073431784784
H           -2.16160911620303        0.99093954618046        0.48881870555923
H           -2.28151004486676       -2.03637204351864       -1.57408290288186
H           -2.33997512591909       -1.16927601293291       -3.11608192650060
H           -0.85162651443322       -1.16879712742451       -2.15120776407032
H           -4.20461690618727        0.96464492611071       -0.79342946935250
H           -4.29617498864368        0.05227046056066       -2.30515165136569
H           -4.20459652344834       -0.80502790181447       -0.76155304474568
H           -2.28139735865628        2.16572067608736       -1.64981250371120
H           -0.85160255233211        1.27774668137586       -2.19520412885131
H           -2.33986864605773        1.24364389630049       -3.15961324183745
