64
 energy: -81.324399778493 gnorm: 0.000618370909 xtb: 6.7.1 (edcfbbe)
C           -2.31345888091572       -0.55728807018002       -0.00046604259890
C           -2.25769415843550        0.83557551169877       -0.00080423510302
C           -1.05087734418276        1.49739184084699       -0.00114348120496
C            0.11441723181919        0.73471113372763       -0.00112242550356
C            0.06300913122899       -0.68024034480309       -0.00103997720672
C           -1.17191723190391       -1.32843168403938       -0.00061848306070
N            1.37753305888101       -1.12119032802825       -0.00119282279908
C            2.14710593410359       -0.03550027794323       -0.00104559983806
N            1.45136870976888        1.09177809728235       -0.00112887385006
C            2.01188277324286        2.45567622448970       -0.00240043073911
C            1.55017192530256        3.18851448094816        1.26271329183169
C            2.09715352443971        4.61809388007136        1.24364164336718
C            3.62301871212926        4.57818469543170        1.24261719648585
C            4.10006269137687        3.83703228017941       -0.00387443084255
C            3.54242044125292        2.40800341236186       -0.00218763216851
C            3.62330197542476        4.57501083365094       -1.25236327223082
C            2.09743333298570        4.61498967192997       -1.25383052623196
C            1.55035706750433        3.18542352655513       -1.26939118067849
C            1.59731954871436        5.34175693936442       -0.00605711262962
C            1.98502987182949       -2.47413340422603       -0.00241980784065
C            2.85177861470024       -2.61854444584764        1.25559838058606
C            3.54135500069341       -3.98593858900721        1.24416492820488
C            2.48871222696440       -5.09088847772998        1.24375611608283
C            1.62390835000105       -4.95090175755867       -0.00593046316302
C            0.93459228857301       -3.58128811995379       -0.00430493015155
C            2.48987422934626       -5.08760428080849       -1.25516357937136
C            3.54255983924414       -3.98272727082575       -1.25156759697090
C            2.85296628618917       -2.61535008720214       -1.26002327369195
C            4.41542150654887       -4.10691080206005       -0.00343631915779
H           -3.27456860133012       -1.04583874013240       -0.00007817595872
H           -3.17411501778441        1.40327218563426       -0.00076801231988
H           -1.03193495207013        2.57324858275024       -0.00138944535802
H           -1.26616386078591       -2.39741423896404       -0.00033205216012
H            3.21654498410791       -0.07449190851554       -0.00079530398280
H            0.46383568250677        3.21537331911415        1.32662645412835
H            1.92222080576575        2.65903080178743        2.14333087445162
H            1.74314727666809        5.14087091440113        2.13667855492400
H            4.02101347925477        5.59295548763297        1.24240066328429
H            3.98655513053368        4.07858455392215        2.14281541979918
H            5.19264739485844        3.78296171545507       -0.00367869558402
H            3.90531811264918        1.88995245714437        0.88883691340543
H            3.90552733627854        1.88791368089502       -0.89193836496791
H            3.98701227530697        4.07308233621786       -2.15119851839468
H            4.02133657655877        5.58976278182897       -1.25467923408695
H            1.74365795065195        5.13552599240917       -2.14826726602130
H            1.92245391215521        2.65369806452865       -2.14864272724101
H            0.46400734695230        3.21214316506352       -1.33341846608168
H            1.96474134649862        6.36808927735746       -0.00728936452023
H            0.50599913910355        5.38145264767665       -0.00624738144684
H            3.61249155657146       -1.83701552497662        1.29468590862024
H            2.22428012754766       -2.52391258372311        2.14492437621982
H            4.16484557819717       -4.07112858669725        2.13879740902991
H            2.97519698673375       -6.06632434097829        1.25032416049126
H            1.86983181655125       -5.02151179553780        2.14052778643059
H            0.85230195769714       -5.72618123280233       -0.00732200816097
H            0.31273055733074       -3.50471752967992        0.88880887664239
H            0.31309527974571       -3.50210056357764       -0.89745539249346
H            1.87186220113388       -5.01572976947443       -2.15233957971510
H            2.97627769151321       -6.06306320280762       -1.26390935118189
H            4.16693362828997       -4.06550891018698       -2.14581221264043
H            2.22627744969360       -2.51836465487874       -2.14967210180939
H            3.61380289443409       -1.83382720259196       -1.29640926826851
H            4.92096570857459       -5.07264434283390       -0.00443452876379
H            5.18399359127920       -3.33099742378442       -0.00206900579453
