21
 energy: -33.579603991969 gnorm: 0.000843601689 xtb: 6.7.1 (edcfbbe)
N            0.72022492909322       -0.00316914627161        0.30986521854568
N           -0.30168991814465       -0.62849319605334        0.29364915809274
N           -1.33823670942881       -1.03825023619076        0.32950522771897
C            2.04266623377542       -0.51624546254002        0.05408887558257
C            2.88706565446102        0.68922191511244       -0.37189337429753
N            2.55471865603391        1.81592361683435        0.53287794577354
C            3.31752731464280        1.88428824336242        1.80219496288891
C            4.61283698326128        2.65497412506558        1.52821482937192
N            4.23731263307546        3.78689216687381        0.71741224718633
N            4.84897813423824        4.81121764801539        0.60554642386512
N            5.27243474265779        5.81637121259063        0.37383309781560
H            2.44412374649715       -0.97528148483683        0.96638099634452
H            2.04752523354379       -1.27278583067293       -0.73630566829883
H            3.95098191066968        0.46029746719950       -0.33279435885167
H            2.62406445064339        0.97637169649215       -1.39133094466341
H            2.74963322167949        2.73816204073840        0.09363760310776
H            1.53557167582829        1.68687886610495        0.69827911666318
H            2.71893877305821        2.42723813655349        2.53567756902160
H            3.52519557561850        0.88611236097676        2.18481669341150
H            5.07375505375027        2.95738556548724        2.47342510404472
H            5.33319170504365        2.03200029516168        0.98262927667537
