40
 energy: -70.069284494264 gnorm: 0.000528545863 xtb: 6.7.1 (edcfbbe)
Br          -0.79099460376266       -1.96128454123836       -0.74952153561279
C            0.94563088468766       -1.22407778558985       -0.57531486007011
C            1.13822455240594       -0.10211140311163        0.21788792127733
C            2.41339765416320        0.39718747387570        0.37490745493628
C            3.50607165195233       -0.23060280762120       -0.23171569162861
C            3.28359463666482       -1.33271570598363       -1.06016482689840
C            2.00734484975866       -1.82359218458163       -1.23887310200758
C            4.84004181239559        0.30721504103053        0.07239339217613
O            5.06988715976062        1.45099613270493        0.35482160752422
C            5.98638459912628       -0.74960165516393        0.16001474854928
N            5.70565795184579       -1.60923278409255        1.27690153711304
C            5.92038464737498       -1.28089984311443        2.58395617623941
C            5.38288975713418       -2.27181687591577        3.34495381784726
N            4.85484571556877       -3.19664702168244        2.49338590347360
C            5.04700629939824       -2.76496546125582        1.24614448145454
C            3.99620242649605       -4.29402654698534        2.82841211601720
C            2.58550245310121       -3.99446584272765        2.24029905377710
O            2.46506366902912       -3.03782237637425        1.50481787521857
C            1.50716889134795       -4.90580260038082        2.59237186222704
C            1.67964518468923       -6.05055440388503        3.38258442114906
C            0.61012798127286       -6.87588779092648        3.65181955347634
C           -0.64880024391484       -6.57142776724140        3.13911285914252
C           -0.84112259573023       -5.43913211798343        2.35429728375075
C            0.23005456434836       -4.61815430189279        2.08579129701946
Br          -2.10643784158144       -7.71382564829428        3.51448898549725
H            0.30026098938115        0.36934934343546        0.70717299500997
H            2.58890781775806        1.26701745533573        0.98957261949850
H            4.09503267859673       -1.78767159485442       -1.60822843145630
H            1.83102426589898       -2.67175757210431       -1.88199715651233
H            6.05570191694352       -1.33120251239338       -0.75851055667557
H            6.92310970544028       -0.21481094834619        0.33119954050088
H            6.42620623074068       -0.38248976359049        2.87467639256859
H            5.34886977200826       -2.37935404779126        4.40980272150564
H            4.74167449851410       -3.28409250371720        0.36002358471854
H            4.36464726577848       -5.22274148573720        2.38317352292319
H            3.94991535697422       -4.40136382846063        3.91218736000450
H            2.64523948527883       -6.31140743113412        3.78610165166204
H            0.74150298473274       -7.75915229844848        4.25720508720521
H           -1.81804123696057       -5.21081179823886        1.95866618290389
H            0.09990621137001       -3.73705219555806        1.47735215450661
