27
 energy: -32.357200170186 gnorm: 0.000776391530 xtb: 6.7.1 (edcfbbe)
C            0.92380469459166        0.07735943065756        0.57074546904521
C            0.01946226401214       -1.14540396399502        0.51865777156100
C            0.21445814489926       -2.14297713426577        1.65859160870292
C           -0.71377527925446       -3.34203271445095        1.49924401801668
S            0.51121650471748        1.24439609012830        1.92411211395076
C            1.49444112659728        0.80955149526190        3.28918691630631
N            2.31829541425349       -0.22895713006328        3.27624866595699
C            3.17125880940056       -0.61639277818016        4.38195523072924
N            1.39633827646705        1.59444918866357        4.35004130804519
C            0.54711975373084        2.76214733423673        4.40922392480050
H            0.76244884118801        0.69059367990511       -0.31743773736385
H            1.98419208297056       -0.16818142248593        0.62037002136980
H           -1.02123363198756       -0.81617138598422        0.50602687777295
H            0.21287949148084       -1.65022924385575       -0.43065937021437
H            1.24844221264222       -2.50346945538167        1.66374616982719
H            0.00274273275718       -1.65981483866803        2.61698888946576
H           -0.51497423094122       -3.85793350329835        0.56354240559023
H           -0.56835386415794       -4.04464393870461        2.31512562348998
H           -1.75293818932663       -3.02383245186793        1.50193391201664
H            2.28355380249193       -0.85447670484052        2.48397305048601
H            2.58213794156243       -0.91497620652599        5.25200778775097
H            3.77539962332186       -1.46352894218621        4.07082146227315
H            3.84238799416658        0.19869552445064        4.65785143219628
H            1.95320520309411        1.38219116405191        5.16526898283009
H            0.59641440515369        3.18634132398683        5.40764886297039
H            0.87114101311542        3.51286402513620        3.68552416712247
H           -0.48770513694154        2.49452255827613        4.18723043530088
