20
 energy: -20.356211131980 gnorm: 0.000657487139 xtb: 6.7.1 (edcfbbe)
C            1.04469154877391        0.07876373599835        0.07523294381660
N            0.49344015574761        0.95803977598383       -0.97374119352754
C            1.04468668136160        0.56634756658402       -2.28525009015439
C           -1.01687249046956        0.99233019495476       -0.96665505122729
C           -1.52861901694178        1.43235073053232        0.39965644786505
C           -1.52862391869663        1.93769693911841       -2.04679478562763
H            0.64149988718727       -0.92598530201226       -0.04182711219085
H            0.79860621675882        0.45023983874334        1.06618101361002
H            2.12877279658811        0.03161134630764       -0.01031804336779
H            0.80425832377732        1.91680235547973       -0.77569885079383
H            0.64149455519723       -0.40255134524725       -2.57586713013634
H            0.79859794388620        1.30005089573395       -3.04791016687913
H            2.12876807038108        0.48915816957197       -2.22538778284293
H           -1.35190258292444       -0.02775983543934       -1.17736720254894
H           -1.09164278170817        2.38391604497374        0.69577290556230
H           -2.60471585311166        1.57014517445344        0.34506683436354
H           -1.34515634598545        0.69434949237491        1.17438932185304
H           -1.34516133510699        1.56706341234704       -3.05053166977427
H           -2.60472095318409        2.04258023739349       -1.94207439866608
H           -1.09165090153037        2.92871057214792       -1.94164598933354
