38
 energy: -72.322890219325 gnorm: 0.000466829997 xtb: 6.7.1 (edcfbbe)
O            0.29741344967414       -1.69932181413889       -0.37414372915918
C            1.45348052021875       -1.39077870594740       -0.40837797928002
C            2.53003121557746       -2.14244140691947        0.27558722884945
C            3.66600429934258       -1.51782012994423        0.79499617862052
C            4.64072580477890       -2.27078368868565        1.41831210624642
C            4.47857450124118       -3.64658754349855        1.51497214966825
C            3.34207829272106       -4.28070588825735        1.03317752511120
C            2.36517920296257       -3.52304463348743        0.41704643542603
N            5.53457739376625       -4.43610965545567        2.13897736794174
O            6.57535328078575       -3.86400752284142        2.36176224640073
O            5.29455129950936       -5.59436121370441        2.36431729197637
C            1.89212038273577       -0.15329433293807       -1.23632106722343
N            3.14231714766027       -0.34485946717572       -1.92192294900382
C            4.18284969845226        0.48365967954820       -1.95568010234254
N            5.17981432109212       -0.01406662471591       -2.67921451733808
C            4.78180749500624       -1.24497014363707       -3.15249860717825
C            3.47376612909851       -1.45729476382157       -2.66739282593061
C            2.77746654742230       -2.62212448062111       -2.95571125925517
C            3.44645950673517       -3.54942518975969       -3.73166943563108
C            4.73811627855796       -3.34565556084276       -4.23047459094949
C            5.42851761889473       -2.18702490918168       -3.94851994174065
N            2.76751681648225       -4.81588608026297       -4.02874774467550
O            1.75956557843615       -5.03535122165775       -3.40600632853762
O            3.27858758416768       -5.52587919672263       -4.85186469627753
C            6.45270728051904        0.60449235006689       -2.93626426477982
H            3.77038058821162       -0.44400110254261        0.76279989088502
H            5.52363681815557       -1.81506234638443        1.84090799235934
H            3.23776785658516       -5.34872671874693        1.15148751619863
H            1.46889939746457       -3.98732199176356        0.03477249155300
H            1.09180974832573        0.04070942383919       -1.95917853932799
H            1.96302176369237        0.70933200413033       -0.56910901640407
H            4.21181779784350        1.44108413335094       -1.46701898074645
H            1.77323608819845       -2.82190313449598       -2.61517510370819
H            5.17704706040087       -4.12182400349539       -4.84040985271216
H            6.42324490154894       -2.02372025693450       -4.32803476080826
H            6.51249672423279        1.55953581076034       -2.41976474925166
H            7.25857228948568       -0.04231786946820       -2.58718399169447
H            6.57829732001593        0.77022819633687       -4.00722138728179
