43
 energy: -53.302982752468 gnorm: 0.000681649770 xtb: 6.7.1 (edcfbbe)
C            2.70617557147692        0.81728640731141        0.23307386689907
C            1.24340801194684        0.48054634986187        0.26072876179683
C            0.88950561531035       -0.81105188744306        0.64516171596332
C           -0.42890828139233       -1.20986201659646        0.73851048233397
C           -1.43915712442320       -0.30013638744733        0.47419815089849
C           -1.10922678130174        0.98348704134902        0.08899591476469
C            0.22067854564706        1.38283094495982       -0.05464429155638
C            0.48551863793077        2.80475048955546       -0.48090964374342
N            0.50105751783765        3.02947005463436       -1.96582304907185
C            0.80103607308743        4.47770629694547       -2.24698457781501
C           -0.18101185271369        5.45947028579697       -1.65736161208073
C           -1.31955754768341        5.76643412568973       -2.40486350114929
C           -2.27063766597974        6.65264794027488       -1.94132341236039
C           -2.08617530904518        7.26402998916369       -0.71252313442816
C           -0.94161471426559        7.00230086773482        0.01365966668398
C            0.03122459111271        6.11252720055404       -0.43742995891063
C            1.25186520715131        5.93512793780593        0.41826931620989
C            1.55032539205195        2.20991292019631       -2.59264275933656
C           -0.79489225175321        2.65459329938778       -2.55274137905897
H            2.90455090287124        1.86089507398599        0.46295583005477
H            3.22564786818526        0.21514012001390        0.97371496303311
H            3.14708245974026        0.58289242007601       -0.73518651563693
H            1.67386176628334       -1.51255753913909        0.88505585705553
H           -0.66813556238234       -2.21747167287234        1.03876986266773
H           -2.47405171016600       -0.58438760788670        0.57715092718119
H           -1.90012749674706        1.69905513341945       -0.08428250946830
H           -0.29628458745526        3.45208562667452       -0.07810031821805
H            1.44909060174906        3.14158055998288       -0.10024833150517
H            0.80755556587971        4.59320928099499       -3.33343502842201
H            1.80831252938574        4.67613944900974       -1.87912268688858
H           -1.45299353708768        5.32017337166546       -3.37972415515030
H           -3.14101927158856        6.87219375082766       -2.53844118972999
H           -2.81886211989660        7.95872004131777       -0.33398950592054
H           -0.78427159135530        7.50570524300313        0.95538118204339
H            2.14075240934446        5.68924700792758       -0.15616166034409
H            1.45295440700727        6.86128778034656        0.95047677802149
H            1.09376982891177        5.16191627128418        1.17010859071417
H            1.36211988496497        1.15754520952567       -2.38848060278051
H            1.55363418065693        2.36438163685292       -3.67040860098377
H            2.52736802735913        2.48094971372647       -2.19829904852878
H           -0.99421697866948        1.60201809086837       -2.36158805744030
H           -1.58966592227950        3.25509668631987       -2.11534967005185
H           -0.77687528970584        2.81970249234494       -3.62841666570592
