34
 energy: -48.171989329233 gnorm: 0.000313677202 xtb: 6.7.1 (edcfbbe)
C            0.32535910809215       -0.23683242643514        0.16997967819273
N            0.19024688404263        0.45343252797382       -1.08406919504475
C            0.31265035731627        1.79728800403013       -1.26472430075526
C            0.13053957987956        2.04773072723653       -2.59115221518657
N           -0.09856852747122        0.85174564893556       -3.20157034033430
C           -0.06001040729585       -0.09768462141569       -2.26687868793677
C           -0.36607568326598        0.58940790689168       -4.61849800970002
C            0.63284777114025       -0.55252189265008       -5.02588609432584
O            0.31661912877196       -1.69622916448585       -4.81370802279196
C            1.91679674036385       -0.17503308238894       -5.63268925535828
C            2.35664999479466       -0.91760613682589       -6.73032533105504
C            3.56689159163123       -0.62454449901508       -7.32868938100666
C            4.36571469056340        0.38655529343840       -6.81873492255383
C            3.95549476581721        1.09883139425258       -5.70195374882751
C            2.73545418308045        0.82871220995160       -5.11205124892376
C           -1.79451941757227        0.04775326062919       -4.73822766906802
C           -0.22074161290448        1.84631056752813       -5.46460798856971
H            0.04362164756598       -1.28033846933581        0.04998314941840
H           -0.31640247026993        0.22454445679933        0.92039662378218
H            1.35798329220714       -0.18574664073122        0.51860303908124
H            0.51394721408914        2.47185557715407       -0.45773847137562
H            0.14301404445731        2.98055902307671       -3.11441150454440
H           -0.19078649856834       -1.14697830848922       -2.45177414001686
H            1.72882039581691       -1.70870543647822       -7.11056300505692
H            3.89167474331213       -1.19196415887971       -8.18656134470680
H            5.31391420605902        0.61201938683728       -7.28104909294450
H            4.59083296314420        1.86663709067352       -5.28783031208158
H            2.44960441654054        1.36276499055402       -4.21644398568680
H           -2.50133420305931        0.73297683657591       -4.27635927339423
H           -2.05345499486324       -0.05940638268047       -5.78776381645084
H           -1.88251449580274       -0.93012282967640       -4.27217445548062
H           -1.01405947244230        2.55313871443482       -5.22993856512206
H            0.74281457443272        2.33047236080144       -5.34135724224270
H           -0.31887450960373        1.57342807171382       -6.51235086993193
