35
 energy: -50.299566754706 gnorm: 0.000830358299 xtb: 6.7.1 (edcfbbe)
O            2.02825620624472        1.86742931789130        0.16116605795008
C            2.80983913559915        1.00501760808895       -0.16965126764449
C            3.04357478078691        0.58492831497683       -1.54843561515198
C            4.01552123193394       -0.35063935788459       -1.91883594843849
C            4.17607630634094       -0.68679116584002       -3.24850827651825
C            3.37688336230487       -0.10433010311051       -4.22232831878162
C            2.41051022410120        0.82446526613349       -3.86611808589425
C            2.24501943895745        1.16868634462705       -2.54049523381696
C            3.63743248227861        0.29694830857376        0.93667720288469
N            3.17271077303329        0.75376028463551        2.21728183217091
C            2.29586328911319        0.08155815433888        3.01820692296294
C            1.93929909602191        0.92271152721217        4.02178121909561
N            2.58674553635610        2.10454263753875        3.81140759303666
C            3.32445939922839        1.99692243853023        2.69994004482007
C            4.18327950452323        3.04447156372783        2.12341421693226
C            5.49867823578252        2.87210918947770        2.07566459154363
C            3.47458001085899        4.25178856416575        1.59102134562454
C            2.49053336019946        3.25658112607962        4.66880747022546
H            4.65323651359243       -0.81302962229327       -1.18160942287070
H            4.92827518300988       -1.40690338639512       -3.53136904868961
H            3.50916632052319       -0.37601696874909       -5.25819120246841
H            1.78904354955794        1.27732157088134       -4.62278971613348
H            1.49814139490869        1.88870073164229       -2.24235514661957
H            3.50523592099052       -0.78343653099405        0.87467132826328
H            4.69057097085775        0.55014076537220        0.80078081491139
H            1.99701181868106       -0.92745788897229        2.82261237775323
H            1.28360872099580        0.76909220648493        4.85392523681590
H            6.14065166042794        3.62536430347671        1.65508475612240
H            5.98555417456230        1.99809121704860        2.47550691755816
H            2.67804430239793        3.94228281855787        0.91624935803059
H            3.02564047320521        4.83587947982115        2.39123038865335
H            4.17272546076803        4.88429493289387        1.05143107754433
H            3.42123431155526        3.82065390549058        4.63978479582185
H            1.66777969840334        3.90011742204238        4.35199595219151
H            2.30250715188687        2.93038502452201        5.69012578211930
