14
 energy: -21.228092075081 gnorm: 0.000889673997 xtb: 6.7.1 (edcfbbe)
C            0.91990398824286        0.01116289255647       -0.09337320025552
N            0.55770768520884        1.39604753294576       -0.16469244782788
C            1.33172046134046        2.47513148933533        0.02733621074672
C            0.50819593560993        3.56768938344059       -0.12360921082975
N           -0.70991412441151        3.04816022970730       -0.40045826107016
N           -0.67585925038306        1.74911586728163       -0.43018776955147
N           -1.86538094661728        3.71074765507247       -0.53687589533941
H            0.49229567771817       -0.51985191778239       -0.94329172328176
H            0.52141304717030       -0.43216065148743        0.82079906380466
H            2.00270305605211       -0.08606221891910       -0.10083241946023
H            2.37714629180490        2.42390666876580        0.25309561796265
H            0.70679682151190        4.61640220677319       -0.05092228507206
H           -2.62915394303242        3.13373041616014       -0.86650194023159
H           -1.80362470021523        4.63881044615023       -0.93348573959419
