34
 energy: -61.099408285388 gnorm: 0.000649858730 xtb: 6.7.1 (edcfbbe)
C            1.54164823074382       -0.64221997764085        0.03898574091411
O            0.61902809952836       -1.03981932408806        1.05923853469446
C            0.88206678281228       -2.13994413014465        1.73041956603407
O            1.80928885738971       -2.87919731260153        1.59095981838012
C           -0.18606542017877       -2.33497814451355        2.84514981800217
N            0.35123366954004       -1.75007346323135        4.04425948337976
C            1.01592781281161       -2.40537875332483        5.02969359525203
C            1.49250852235744       -1.46210013511294        5.90302285950442
N            1.09641106498014       -0.23843730266716        5.42121645721570
C            0.42133079157102       -0.44122772373117        4.29355491493517
C            1.51753006427239        1.05886554983107        5.86687744078273
C            2.38289386279431        1.68758527784046        4.74703348749686
O            2.37167127616887        1.24960091589766        3.62576107858417
O            3.06176312169819        2.70012792438612        5.20860923226488
C            3.91735901775739        3.42695701465338        4.31980335662475
C            2.28602595426628       -1.65549521635315        7.15039513124856
O            2.68953178230736       -0.74562295762547        7.82759124666389
O            2.46983215857918       -2.93870366049717        7.38630541552738
C            3.22353987381497       -3.26935104976581        8.55622079588130
H            0.96391149599977       -0.10806780451627       -0.71147703030361
H            2.02718799032888       -1.51713330661687       -0.39388533902314
H            2.29189822294690        0.01619792568675        0.47927349157554
H           -1.10999204838850       -1.83325431683763        2.55502673094012
H           -0.35307544239898       -3.40175875198134        2.99770319637552
H            1.12381101824414       -3.47119437699217        5.05963703472581
H           -0.00632980588862        0.32508909734679        3.67580734197187
H            0.65747844963172        1.71120640406411        6.04087059558030
H            2.09533186458683        0.96903262439217        6.79061932224992
H            4.01729136916076        2.90022628199940        3.37079160198613
H            3.48599339883322        4.41471605665554        4.15972418320988
H            4.88417019976412        3.52191302115630        4.81052171114267
H            4.22653848206897       -2.84568214663396        8.49019639941859
H            2.72994538268598       -2.87551887588216        9.44575841962223
H            3.26584389921008       -4.35402936315291        8.58775436714113
