61
 energy: -67.709272673363 gnorm: 0.000382205047 xtb: 6.7.1 (edcfbbe)
C           -9.70019205945758       -3.38148164707350       -3.83675154451972
C           -8.18436885044293       -3.22640106608913       -3.86044058683554
C           -7.71049714553778       -1.84857339401620       -3.39398416776894
C           -8.10652984568837       -1.47494399161926       -1.96247191593893
C           -7.66785967757895       -2.47388188106389       -0.88351854402574
C           -6.15893375162212       -2.73371308140310       -0.79478024700728
N           -5.40619567784906       -1.96550975737669        0.24853415576663
C           -5.79311793243943       -2.48529439121457        1.61600466540162
O           -4.95192111225202       -3.53777669902083        1.86764274813661
C           -3.65157125293073       -3.13739010673161        1.44702605445679
C           -3.93031053002414       -2.35102040775509        0.14142292467702
C           -2.82132366585213       -1.32578973991358       -0.13148751683058
C           -2.91652404568067       -0.61582166601286       -1.48224026970180
C           -2.52766541118961       -0.34562460148571        1.01271795432797
C           -2.97922545722178       -0.86082367562474        2.38071496869225
C           -2.85523718827317       -2.38148149787428        2.53518945878397
C           -1.39501263717533       -2.89479108034611        2.58857430287616
C           -0.48326882946065       -1.99850629144805        3.42627646784314
C           -1.35591329734423       -4.30351712570456        3.18450650689585
C           -0.01976478680738       -4.00878368076825       -1.15834465547140
C           -5.70181744848880       -0.53339359461894        0.13371218104388
H          -10.09040750562001       -3.35835308358766       -2.82214417371199
H           -9.98403988718789       -4.33076863146910       -4.28304661381091
H          -10.17175739644337       -2.58443291900277       -4.40607898951852
H           -7.72424201332192       -4.01104664579233       -3.25549073640896
H           -7.83550630374237       -3.36688391277998       -4.88514966494613
H           -6.62495639419921       -1.79066214917160       -3.51546159117025
H           -8.13900143054356       -1.09461455200572       -4.05664873046882
H           -7.72092685951397       -0.47660900244337       -1.75001236098382
H           -9.19350838865419       -1.40849587695705       -1.91274749143441
H           -8.06927490000821       -2.14871103286341        0.07761458483816
H           -8.14459467440565       -3.42868633948613       -1.10629501893277
H           -5.98587954920126       -3.78866893328339       -0.56999045131926
H           -5.70681334810946       -2.50372147006001       -1.76067315939825
H           -5.68205515159816       -1.66681260458931        2.33892673763022
H           -6.82179854756203       -2.84910175751614        1.62912762558103
H           -3.12956930593352       -4.06792584696441        1.21358775965276
H           -3.88468635756540       -3.05955446951394       -0.68929132045580
H           -1.03365216731480       -4.19122153455265       -1.49290422352570
H           -1.95272367442216       -1.99151440780562       -0.20391490522110
H           -1.93842993632028       -0.21611422442289       -1.73677132807066
H           -3.20333212146690       -1.30772976194340       -2.27107045611128
H           -3.60741237241043        0.22156975554608       -1.47313783929839
H           -1.45114159662398       -0.17624390777228        1.02768266836730
H           -2.98478412134695        0.62681160662933        0.81804470592427
H           -4.01350058228609       -0.56752270046150        2.57128521194571
H           -2.39164185540545       -0.37603414997226        3.15787161979465
H           -3.31753807545743       -2.65250610917541        3.49117284186062
H           -0.99585283699399       -2.93117407105051        1.57006879118874
H           -0.90903412366490       -1.83030814926322        4.41252326566784
H            0.47755966663891       -2.48904148475662        3.55712192914988
H           -0.29730363660379       -1.04013641626049        2.95026265008044
H           -2.02163059409199       -4.99389090285145        2.67315546386400
H           -0.34795147901153       -4.70496681872270        3.12416067124286
H           -1.64455259739647       -4.27239412557297        4.23233520265054
H            0.66714526435379       -4.53225088563859       -1.80917252715362
H            0.19810815473378       -2.94885282400107       -1.19618424905731
H            0.10421839787961       -4.37401140583762       -0.14701833159339
H           -5.57393547261459       -0.21656806610061       -0.89746512875792
H           -6.73166078612961       -0.34947684925195        0.43375030171113
H           -5.04450483711383        0.04598603782506        0.77369431931354
