53
 energy: -62.274910420832 gnorm: 0.000305048687 xtb: 6.7.1 (edcfbbe)
C            2.60276223118854        1.55756235589792        0.49648265088006
C            1.59399918564149        2.65181998660887        0.16778050653211
C            1.28327084891745        2.74731137143173       -1.32867872471845
C            0.56201297659934        1.58594580103735       -2.02516450556503
N           -0.89860419833935        1.35485677521582       -1.75671590750352
C           -1.63671581892630        2.64246373088034       -1.61866898452533
C           -1.75129399997951        3.51375568411523       -2.89022840155124
O           -2.82201258027597        3.85581745541443       -3.30217560422460
O           -0.57994020742410        3.83755443352249       -3.40781476222670
C           -0.58181754389002        4.66562979191433       -4.59052279861778
C           -0.78479569480781        3.83205562660065       -5.84442803083075
C           -1.52441368781449        0.64311580079781       -2.92485967710065
C           -0.70565627314039       -0.44455251313944       -3.62402442144547
C           -1.60855830477258       -1.28509319481740       -4.53597631693200
C           -2.22350674429919       -0.48602590070518       -5.67931148149750
C           -1.11400605379321        0.60561148685972       -0.45784947889435
C           -1.14312296709725       -0.92834143183096       -0.45445261900107
C            0.20737152726917       -1.63130174459947       -0.27072612986261
C            0.66176281061453       -1.62392627688555        1.18496057838937
H            2.24826169966052        0.57194151838068        0.20942656108478
H            2.80590965679811        1.54436008777198        1.56376389540787
H            3.54011213900477        1.74479455523598       -0.02111870851313
H            0.68823918077218        2.53103107154654        0.76618009259186
H            2.02677201238792        3.60988173863627        0.46178720474996
H            0.76958269902560        3.68457646299568       -1.53594019617896
H            2.24479677174545        2.81251532450835       -1.84482391502443
H            0.64900320073176        1.78580383841167       -3.09264471000503
H            1.07851616330191        0.65340897016490       -1.80609431750735
H           -2.67397849964976        2.42731840146106       -1.34883842610600
H           -1.18636486594259        3.23714717679198       -0.82196819712001
H           -1.37344126542560        5.41251090121508       -4.49291334825128
H            0.39571538566996        5.14894682668655       -4.58636833509208
H           -1.76906019873593        3.36928832645674       -5.84120608397086
H           -0.71457511096623        4.47831237313075       -6.71349988568669
H           -0.02114883613069        3.06135841725617       -5.92354188927282
H           -2.47221189973401        0.22794194341452       -2.57567888886706
H           -1.76076469441592        1.39798360855209       -3.67521476939180
H            0.07337000026082        0.00373054034085       -4.24193644875482
H           -0.22259660679187       -1.10887290907393       -2.91142388639009
H           -1.00146120882879       -2.08830328311639       -4.95508601382951
H           -2.40183348003792       -1.74882562263949       -3.94617389958147
H           -1.45217722838173        0.03216185483584       -6.24458241510168
H           -2.74172320716032       -1.15709424064546       -6.35781460251295
H           -2.94621330936561        0.24274512753071       -5.32061207985664
H           -0.34403204652158        0.93745558526681        0.23473204344432
H           -2.07831127963700        0.93499473818856       -0.06958557866868
H           -1.75922802184409       -1.20741622665552        0.40376008169813
H           -1.65751132720671       -1.31758169267446       -1.32895570015829
H            0.09845028459350       -2.66877096512697       -0.59020082063541
H            0.97994005547742       -1.18486575633727       -0.89974616991927
H           -0.03450153106847       -2.19009330427179        1.79799908188955
H            1.64161971596047       -2.08420193977790        1.27637330028927
H            0.72172014676014       -0.61520268677876        1.58637113389637
