89
 energy: -93.128912828596 gnorm: 0.000235570672 xtb: 6.7.1 (edcfbbe)
C            1.20355951742915        1.27475708143233       -0.58870090205631
C            1.34117919696849        0.36040409753307       -1.80011949560927
C            1.50838054208425       -1.11344541063271       -1.42747964840137
C            0.32152931130828       -1.73172713034358       -0.68525791280332
C           -1.01079299618279       -1.68234634088770       -1.43617966363367
C           -0.99821098271850       -2.33454577558383       -2.81979524673261
C           -0.61501112533970       -3.81527670291663       -2.83285437845863
C           -1.55267948724103       -4.73433830957953       -2.04734108048437
C           -3.01257307838023       -4.71734993893227       -2.50646822993950
C           -3.22799286063869       -5.02542256625393       -3.98950854833794
C           -2.67591014335676       -6.37342856158200       -4.45577471090215
C           -3.30386123630863       -7.59628287739318       -3.78459539575972
C           -4.81239145669308       -7.74743521802603       -3.99444139642317
C           -5.26195185868633       -7.76923531454232       -5.45729328476149
C           -4.59699670976404       -8.84817564025028       -6.31431269949558
C           -4.86134595994997      -10.28640386425032       -5.86442579226301
C           -6.33822001344505      -10.70442302276334       -5.81663255704609
C           -7.19100775739005      -10.41072096098552       -7.05502897243372
N           -7.19018180545733      -11.41535098024509       -8.16571114249966
C           -7.87128306184685      -12.68714029395914       -7.76628111715739
C           -9.39013343196048      -12.64416182984840       -7.56706397131351
C          -10.24392401076908      -12.99671732330899       -8.79303955077613
C           -9.92714367741623      -14.34590613110470       -9.44370494850785
C          -10.00633093668616      -15.55284417996900       -8.50688409646194
C          -11.37323267859461      -15.76887622507370       -7.85344292088760
C          -12.52953209430846      -15.97363209156842       -8.83384340540049
C          -12.35845358099731      -17.20237489754843       -9.71894891149057
C           -7.86424919526366      -10.80472780949856       -9.32618399115541
C           -5.81250852532843      -11.75087862989625       -8.56892385700300
H            0.27877508496320        1.07877212119758       -0.05208792525110
H            1.19818377798710        2.31657664460926       -0.90134713443004
H            2.03678090431732        1.12736909956785        0.09510668105526
H            0.47260333148370        0.48370690998324       -2.44930841949147
H            2.22023760313618        0.66598441820114       -2.37333518712678
H            1.70197308862561       -1.68424843529121       -2.33820479026201
H            2.39213322756155       -1.21204797092677       -0.79157132815266
H            0.56772567644514       -2.77106738971162       -0.45627706853976
H            0.19172947819427       -1.21933945438067        0.26998041315216
H           -1.76970238402732       -2.16493576953352       -0.81603997013866
H           -1.31527562194513       -0.64061084685139       -1.55613712059458
H           -1.98903181723382       -2.21353265474553       -3.26358575924098
H           -0.29590967684100       -1.79736953703839       -3.46033740565323
H           -0.57189693813474       -4.14756155385807       -3.87273958457077
H            0.39045600916745       -3.92779431472000       -2.42306636446952
H           -1.16517011255894       -5.75392076836292       -2.11352032350469
H           -1.52746900489573       -4.45473354875552       -0.99245697333541
H           -3.56962940252129       -5.43653320790941       -1.90116828247130
H           -3.43965938995029       -3.73370116049127       -2.30198865748324
H           -4.29968238689799       -4.97862706662668       -4.19742275628134
H           -2.75514894136858       -4.24348491908794       -4.58639332939330
H           -2.80905003818637       -6.44258815545887       -5.53823035606431
H           -1.60159532242906       -6.40151670128139       -4.26792663973968
H           -2.79320912033651       -8.48994032139959       -4.15223718667036
H           -3.11826974465810       -7.54731870448690       -2.71074429085862
H           -5.13834418872544       -8.66355339550066       -3.49544287229873
H           -5.32460950600050       -6.92012748032836       -3.50120959292209
H           -6.34846611408333       -7.88865878624460       -5.48325676904545
H           -5.03907471611226       -6.80097827443367       -5.90737620214673
H           -4.90848396864658       -8.70984198975343       -7.35453488042066
H           -3.51829865780298       -8.69341058328839       -6.29659198179551
H           -4.28058195820844      -10.95688244748740       -6.49880391020445
H           -4.47114444010089      -10.40610040785641       -4.85346039243438
H           -6.39669317614392      -11.75831905284886       -5.54101555345758
H           -6.80448821941331      -10.15017274589101       -5.00056113586612
H           -8.22947957579236      -10.30019129316371       -6.73970559159530
H           -6.87083449142926       -9.45820637532288       -7.47871650357563
H           -7.64261127472055      -13.43093025182064       -8.53053037798372
H           -7.39994655028859      -13.01239882375550       -6.83813731495952
H           -9.62236864520517      -13.37144395570501       -6.78839096429890
H           -9.70974189366014      -11.67477306848185       -7.18235796102027
H          -11.28213253599372      -13.01040433080915       -8.46060611799151
H          -10.17241517109847      -12.22267583893835       -9.55830069509295
H          -10.63309115917486      -14.48824865501965      -10.26194443576058
H           -8.93225615113138      -14.32500637033978       -9.89914778140295
H           -9.74840241355186      -16.44173190860033       -9.08357086520131
H           -9.25565287034101      -15.45980072510089       -7.71763183182695
H          -11.30072790553775      -16.65286786386528       -7.21625986578604
H          -11.60986254101189      -14.92302597871461       -7.20357579647343
H          -13.44541383612113      -16.08679631233018       -8.25021996528153
H          -12.65472238412877      -15.08754841362060       -9.45936320416088
H          -12.18862187040770      -18.08802100195360       -9.11113677840952
H          -13.25493918375098      -17.36338153937123      -10.31204933548970
H          -11.52095232010510      -17.08675935330081      -10.40254862518596
H           -7.27453731714896       -9.96981763653162       -9.70194981165348
H           -7.97208190217866      -11.53992524712831      -10.12113052174040
H           -8.84753248302631      -10.43502712212119       -9.04656609554799
H           -5.24104177497431      -10.84032847441436       -8.73673455370229
H           -5.32474577781210      -12.34168858518973       -7.79806898340182
H           -5.82527120908262      -12.32946557569640       -9.49145514417644
