40
 energy: -65.618301137019 gnorm: 0.000749132324 xtb: 6.7.1 (edcfbbe)
Cl          -1.57590859328733       -2.06674525195118        1.89055092820509
C           -0.33341303156499       -1.22335391192592        1.06935577702429
C           -0.03800083763334       -1.53453479149261       -0.25577675176746
C            0.96245244637050       -0.84839090178484       -0.90574233084123
C            1.68678965146526        0.16134091336127       -0.25472030580962
C            1.37890920321303        0.46018447946754        1.07847147352136
C            0.37969887419076       -0.22643199230824        1.73274847577842
C            2.73132517806263        0.83000166645758       -1.02010178916302
O            3.05488810588807        0.54155383515358       -2.14740763619697
C            3.48749864960542        1.99523124839559       -0.30665015796805
N            4.35464716609682        2.62174709018925       -1.26185823738909
C            5.37460259355550        1.98618780740265       -1.90292499101541
C            5.84884501925216        2.82694919974066       -2.86276498830681
N            5.09725258636961        3.95775087239032       -2.78183707760329
C            4.18854379272341        3.82075206978931       -1.81700133659944
O            5.25957843028638        5.02591698557451       -3.60711856549411
C            4.09668921437741        5.55732465833321       -4.18617284947125
O            3.02940436877614        5.14340686188761       -3.85934521267686
C            4.42233969222019        6.66469996900702       -5.14770684899389
C            4.01694191161992        7.96432817525081       -4.42924160762889
C            5.90126936213576        6.70560974610038       -5.52502409834881
C            3.54657605311941        6.46292228248471       -6.39070015946377
H           -0.59120067300806       -2.30854909689025       -0.76297859826420
H            1.20800333175951       -1.07609178496483       -1.93152012021003
H            1.91866437520190        1.22141878061649        1.61955542242261
H            0.14334697770690        0.00152896680969        2.75981946343651
H            2.77816668559216        2.72645540281561        0.08023111328309
H            4.07466342099127        1.57485238262934        0.51388193823832
H            5.68871226895362        0.99437006405384       -1.64873697400760
H            6.64030509567149        2.71623121444218       -3.57525024751177
H            3.44804668297111        4.54763419333584       -1.54500738161263
H            4.62162571859810        8.12338713923788       -3.53916259925067
H            4.17168423540393        8.80249256373673       -5.10256523411788
H            2.96765665618918        7.93641012510512       -4.14634639703665
H            6.20964780308834        5.77732125127898       -5.99895131042435
H            6.06460886492464        7.51605615729521       -6.22987301935345
H            6.52755903253066        6.87934380352216       -4.65442322194966
H            3.83498261876410        5.56009437439439       -6.92340616834190
H            2.49956719509053        6.38197659012915       -6.11159420335523
H            3.66601987273152        7.31016686090398       -7.05900417172522
