44
 energy: -61.865605138539 gnorm: 0.000287260407 xtb: 6.7.1 (edcfbbe)
C            1.50118059312494        0.37967165908209        0.76383433388935
C            0.94309471838592       -0.68760216876672       -0.18432887635052
C            1.33688119712480       -2.12235988650011        0.16883918056814
C            0.67445033374281       -2.66120721488104        1.43276251325002
N            0.82267201741789        0.40512313772668        2.04079085164534
C           -0.47830750127210        0.59873645049682        2.22172413176151
N           -0.75872207880973        0.53139899856706        3.52091744234312
C            0.39814818693114        0.28132550383978        4.19091506112001
C            1.39165123982547        0.20981389757119        3.26181753353085
C           -2.09660848624481        0.53734605639309        4.06192907727603
C           -2.83588921355543       -0.64743709720375        3.51387613049195
N           -2.40205718364390       -1.28068771080690        2.40224326386299
N           -3.19640303048425       -2.25171753141763        2.13827398480717
N           -4.15414046740249       -2.28006225203224        3.03968564289296
C           -3.97883958135503       -1.29067260257049        3.94093524309870
C           -5.20718652336646       -3.26586866183552        3.00713790702955
C           -5.43566273832717       -3.84082416897329        4.38214608396371
C           -4.42396079709834       -4.56442969809406        5.00304394286167
C           -4.61207439313722       -5.07395672628293        6.27507419924607
C           -5.81235539985363       -4.86653969153169        6.93529665044372
C           -6.82353401395034       -4.14843889177829        6.32049368581162
C           -6.63463920359083       -3.63285772396786        5.04924361467662
H            1.39607138640792        1.36540022971693        0.30075175978904
H            2.56082098644603        0.19601495363917        0.94982278658656
H           -0.14427948809452       -0.61433738827971       -0.22377684523198
H            1.32808575859969       -0.45891022566795       -1.17899615026013
H            1.04088711344214       -2.75367140459055       -0.66972749812031
H            2.42257308409834       -2.19267068490879        0.26006398677348
H           -0.39485760110209       -2.46110265235547        1.42495581480324
H            0.81741667557605       -3.73698290363761        1.48649340265243
H            1.10730531788218       -2.23024714257427        2.33272759837917
H           -1.19899217003823        0.77491429889216        1.44899377846432
H            0.44042261166440        0.17482324813937        5.25552694752225
H            2.44040837113838        0.03472409605340        3.39049087885999
H           -2.04858179574235        0.49279248749397        5.15172086019172
H           -2.60342180981448        1.46515603994005        3.77238319289606
H           -4.63517850586155       -1.12928313728490        4.76835224814816
H           -6.12265684890395       -2.79804538061917        2.63069097676022
H           -4.88857234717858       -4.03439029891429        2.29780181620870
H           -3.49060951718075       -4.73189346335539        4.48388674085589
H           -3.82363106997434       -5.63813664210805        6.74937853336317
H           -5.96009245501504       -5.26771928226014        7.92597930296018
H           -7.76144929746856       -3.98790796348166        6.82940959356798
H           -7.42667607334729       -3.07418046084738        4.57150867662337
