67
 energy: -74.049603002575 gnorm: 0.000225925464 xtb: 6.7.1 (edcfbbe)
C            1.73351428532715        0.08294746927206        0.56837874729217
C            1.22217246375579        0.56104547830185       -0.78503606843811
C            1.38113924886586       -0.48165216864780       -1.89297341957006
C            0.61426640998054       -1.78665435478536       -1.66568103146225
C           -0.89560231154246       -1.62857893256692       -1.47030357128411
C           -1.62396259074440       -0.89582592119788       -2.59986994097820
C           -1.53767796387517       -1.59260918341181       -3.96310350639190
C           -2.31898087806281       -2.90922162638538       -4.05056191259854
N           -3.64863557368029       -2.84623598212321       -4.72896987140478
C           -3.50573893126101       -2.52575193327777       -6.21712429127103
O           -2.85296987996378       -3.51917145118657       -6.88549182189101
C           -1.52212076241339       -3.25141769114487       -7.39026030782189
C           -1.55900139570127       -2.22128883120515       -8.51771847888127
C           -0.14248980427481       -1.90535175162569       -9.00208394522978
C           -0.17284939014440       -0.87251514243857      -10.12365027303857
C            0.52527405212030       -3.19991480812185       -9.45799425602914
C            0.51840263037195       -4.25174151163480       -8.35228574689890
C           -0.91029667536675       -4.56921851612485       -7.89476659473730
C           -1.01185119323296       -5.69705842936384       -6.83804317113975
C           -2.31347378468935       -6.47877423472226       -7.03544953865031
C            0.15046549970154       -6.68890185626130       -6.86453902379155
C           -4.28334319024434       -4.17384638154871       -4.61590810208880
C           -4.52085277170279       -1.83982257479855       -4.10498585501612
H            1.13205703905179       -0.73692763083319        0.95293012741964
H            1.69526495460787        0.89479494078983        1.29015202303462
H            2.76452864979208       -0.25324018225421        0.48813086482458
H            0.17549961515224        0.85854543642166       -0.69449694137546
H            1.78546721465632        1.44941749659005       -1.07882248545030
H            1.07664962443960       -0.03496900324365       -2.84282104576416
H            2.44066931501281       -0.73084902444954       -1.98268253894846
H            0.81060079710926       -2.45453837264211       -2.50857581614596
H            1.01304685525234       -2.27973136364922       -0.77873151392656
H           -1.32609120091271       -2.62375212904441       -1.32823861452913
H           -1.07463227842208       -1.07434143023362       -0.54878674116368
H           -2.66637150792849       -0.75840950902106       -2.30675326819288
H           -1.18827831710446        0.09753383156574       -2.70481489907644
H           -1.85915324127782       -0.89430723570400       -4.73691792373959
H           -0.48720239828315       -1.80694689400363       -4.16087394970103
H           -1.74156441892753       -3.66113719713918       -4.59171041093858
H           -2.48872090395681       -3.28618724390012       -3.04019807933923
H           -4.53164748850934       -2.44546324227508       -6.59851620886693
H           -3.01412775770475       -1.55122968850206       -6.29976956110814
H           -0.90370241006901       -2.86245160165009       -6.56818494941612
H           -2.03962615229961       -1.29827276763634       -8.18235288875827
H           -2.15081254793051       -2.62146093288735       -9.34253627806498
H            0.42867911079048       -1.49326992841446       -8.16136082844065
H           -0.63642568224668        0.05205374345933       -9.78736323229935
H            0.83690027284129       -0.64675166520039      -10.45507971310139
H           -0.73524537526096       -1.24980280924698      -10.97412229267747
H           -0.00310572367091       -3.58736045663505      -10.33110641991816
H            1.55419680542502       -2.99598701166980       -9.75629331295391
H            1.10632337551133       -3.89399149813993       -7.50368300054463
H            0.98952310666344       -5.15533684010638       -8.73275303026457
H           -1.48129897757735       -4.88552306348350       -8.77193873849680
H           -1.01786916004825       -5.23532231593181       -5.84176304297696
H           -2.23741366789161       -7.08940728923126       -7.93171930946595
H           -2.49489986050856       -7.14425462660440       -6.19377562642224
H           -3.16232573770783       -5.81213396088732       -7.15619923804374
H            1.09447031311109       -6.21397517759819       -6.61473848216404
H           -0.03358385450344       -7.47379532095861       -6.13429796279701
H            0.23691677119900       -7.15628764873370       -7.84144055896299
H           -4.40830784211135       -4.44275126056614       -3.56921491845730
H           -5.25882479922463       -4.16008608375912       -5.09826597071355
H           -3.66352359379125       -4.91756008113762       -5.11367517754501
H           -4.63073955773058       -2.05946585450574       -3.04441904938416
H           -4.10291585380338       -0.84251247307432       -4.21950383351863
H           -5.50629100434808       -1.85960429901258       -4.56761318026640
