19
 energy: -27.102107656198 gnorm: 0.000167707243 xtb: 6.7.1 (edcfbbe)
C            1.10216146260523        0.10042107111509        0.05747633782285
N           -0.02587853386067        0.25088429869669        0.10207743540729
C            2.54455914230854       -0.08088292482548       -0.03210854311442
N            3.06497901190870        0.55858364600844       -1.23438168630723
C            3.14212976844217        1.90585461795042       -1.30528023009864
C            3.61524012133043        2.48453073445637       -2.47907779603918
C            3.98904512320419        1.70267434164303       -3.55611361385475
C            3.88568401679351        0.31845383803307       -3.44756113576119
C            3.41860151069269       -0.21863722560466       -2.27337466114615
C            2.73121684728952        2.73601850779052       -0.14767797513310
H            3.01117189122673        0.34186613320853        0.86416058253268
H            2.75461753265231       -1.15438584717000       -0.05865625656020
H            3.68157896779261        3.55945325464984       -2.53626901391711
H            4.35174781702852        2.15743201675789       -4.46448859586002
H            4.16220543592438       -0.33100792756908       -4.26191270447008
H            3.31898361251922       -1.28678597827828       -2.14779377936438
H            1.70610346266662        2.51986306416827        0.15479493604675
H            3.37679832797392        2.55932415190776        0.71461612756874
H            2.79649448150133        3.79053022706173       -0.39949942775187
