84
 energy: -116.185388465741 gnorm: 0.000452992196 xtb: 6.7.1 (edcfbbe)
C            3.14313844216526        0.46421911506558       -0.98084045018611
C            1.78354574548638       -0.06464597892826       -0.66367381629366
C            0.64931008213587        0.69445347761518       -0.92542592800285
C           -0.62096477174442        0.23169742596371       -0.62153475562922
C           -1.83929337820310        1.05856526609521       -0.90037968348733
C           -0.73166029455024       -1.03110849222368       -0.03871021534228
C            0.38213209487393       -1.82184816653821        0.24247173458692
C            1.63158760682015       -1.31702870803751       -0.08018924626072
C            0.22394120549458       -3.17609663848791        0.86285816514113
N           -2.03394534886233       -1.52139983534965        0.28474722508851
C           -2.63623070805497       -1.44530657255591        1.50365725081566
C           -3.87926734383110       -1.98649902123351        1.37215154180541
N           -4.01129507197762       -2.39275825311595        0.07984989841232
C           -2.88496967157626       -2.09346645077747       -0.56089658083210
C           -5.20765155244324       -2.91815680347385       -0.52334406614047
C           -6.01241165833377       -1.84406946091361       -1.23662590216338
C           -5.72077662331414       -0.49876066359534       -1.07425933489247
C           -6.51077843291232        0.48649649742686       -1.65535245935182
C           -7.42158633003380        0.08571694343603       -2.62411689377412
C           -7.73827698494836       -1.24997276893036       -2.76595766151266
C           -7.13926278633051       -2.22256167745396       -1.97181231721420
C           -7.85272040688586       -3.52412756420043       -1.73720198608507
C           -8.65023106963818       -3.47807119331231       -0.38145721500947
C           -8.78498588383498       -2.06066566893535        0.09991198165286
C           -7.90287867735060       -1.53050329424868        1.03673711077264
C           -7.68775593581103       -0.16776059605887        1.09270421210601
C           -8.36140369954933        0.69576845609884        0.23420969762055
C           -7.76831497456789        2.03149420871037       -0.10368973439573
C           -6.54722225482765        1.87208280346478       -1.08441678066464
C           -9.47515856819640        0.19246327153522       -0.44924398096221
C           -9.66195073398961       -1.18119310507014       -0.51850985490523
P          -10.68337932588309        1.36835879492278       -1.21343984069448
C          -10.90459190820165        0.61385311500430       -2.87789996649816
C          -10.30266042209609        1.28563000945198       -3.93836014533085
C          -10.38742961487098        0.79360736051962       -5.22806003303316
C          -11.08960815684672       -0.37427128140630       -5.47405040771378
C          -11.72324826422772       -1.02940259209926       -4.43064705208222
C          -11.63914104950834       -0.53788293018013       -3.14003387412988
C          -12.19808422333765        0.76231021647177       -0.38438780383651
C          -13.42283418289279        0.99994257204401       -1.00581237804016
C          -14.60379260565122        0.64894863187691       -0.38095760239556
C          -14.57772020329919        0.07681217914806        0.88107049227916
C          -13.36619139059167       -0.12888570846000        1.51873062722290
C          -12.18079669989503        0.22014227390945        0.89631137314727
H            3.10327203442666        1.18210223686452       -1.79545382150972
H            3.55256324107588        0.97039605012380       -0.10646818246156
H            3.82227236049442       -0.34128265511857       -1.24727594704685
H            0.75706849264426        1.66945621513769       -1.37546563755305
H           -1.55198979502186        2.03447815884764       -1.27923777416192
H           -2.47712799667598        0.58158591416268       -1.64504873621141
H           -2.42625667448012        1.20469709207551        0.00646206953461
H            2.50666378084626       -1.91361006055694        0.12730823043697
H           -0.24677879538846       -3.10561448610271        1.84310615565824
H           -0.39331581180810       -3.82114602221478        0.23735703536812
H            1.19324964524519       -3.64911402446179        0.98595256986487
H           -2.14878611296276       -1.01576765715757        2.35495957394414
H           -4.66187249625258       -2.10300050080220        2.09329429935432
H           -2.68901834519493       -2.28326174126178       -1.59802252110662
H           -4.92618257327407       -3.69436761519717       -1.24150291772679
H           -5.81376653192206       -3.37523162698985        0.26209910152229
H           -4.93282603613941       -0.18765121123843       -0.40189852163207
H           -7.97134573825420        0.82367293537795       -3.18501951691871
H           -8.54237717296421       -1.52954474539505       -3.43001838645272
H           -7.17219774425786       -4.37623390011855       -1.72136081605548
H           -8.55948209442859       -3.67942388474000       -2.55141575362292
H           -9.62985135036325       -3.92576120203772       -0.54549218806494
H           -8.13297484510458       -4.07684922973811        0.37031597135289
H           -7.32980865383667       -2.19286471514045        1.67222262346610
H           -6.92554690156563        0.22924786277305        1.74940889321102
H           -8.53037533310394        2.64641986340630       -0.58419325648248
H           -7.42763962466428        2.54635846265103        0.79498682539796
H           -6.64167268658863        2.61395203443821       -1.87652928529546
H           -5.62301305052314        2.07073911309321       -0.53958402611750
H          -10.45121421231640       -1.57869782528979       -1.13737099697211
H           -9.78186668512922        2.21485453571327       -3.74510182271587
H           -9.91609108801689        1.32453173753301       -6.04219226312693
H          -11.16049017510821       -0.76264459103373       -6.47902127102544
H          -12.29523021134695       -1.92536734311565       -4.62481251000687
H          -12.17357806687603       -1.03860826294597       -2.34474075307870
H          -13.44219392388421        1.45382881129384       -1.98801660940874
H          -15.54706100532606        0.82477602541516       -0.87667292527659
H          -15.50023874641764       -0.19909167580796        1.36928328580011
H          -13.34261797932221       -0.55956539133613        2.50927923968264
H          -11.24017506377061        0.06713412436040        1.40722722105461
