20
 energy: -27.462824281484 gnorm: 0.000665920743 xtb: 6.7.1 (edcfbbe)
C            0.85271419085183        0.02031191904030        0.16809610950083
N            0.53602992165687       -0.77199962891059       -1.03876114946893
C            1.07886517908876       -2.13528479906054       -0.87221438267448
C           -0.93082272507242       -0.85729087636857       -1.19959468316054
C            1.15850065203487       -0.16089125515112       -2.24118190133634
C            0.69421635148844        1.28851007345936       -2.55372903958090
O            1.26354685868490        1.82372981134530       -3.61174920569668
O           -0.11146528167488        1.86536077290960       -1.89042818592246
H            0.42950201382861       -0.46248942449675        1.04641819270723
H            0.42947601714606        1.01958289538597        0.08059220226175
H            1.93083105079605        0.09841133065077        0.29791234409052
H            0.63136100958622       -2.60797601468451        0.00019195318533
H            0.85632266357788       -2.74599321985284       -1.74588455735574
H            2.15803896513514       -2.10363528900261       -0.73043999339424
H           -1.35356445193855        0.14007847172057       -1.30629688858060
H           -1.18181792785741       -1.44873990123796       -2.07823357271153
H           -1.36950130194042       -1.32994270516475       -0.32361777253152
H            2.24472044963528       -0.14673387066189       -2.10297976741078
H            0.92573885391527       -0.78477346113931       -3.11055516897062
H            1.90722751105743        1.28942517121954       -4.09762453295041
