30
 energy: -35.269021281047 gnorm: 0.000892190433 xtb: 6.7.1 (edcfbbe)
C            1.18397342087068       -0.13896538631670        0.32285990420335
C            0.81564986469572        0.54383888844489       -0.98863844364767
C            1.07298384997970       -0.33012665174709       -2.21943858440947
C            0.24981655889329       -1.61676648073214       -2.27829263618189
C           -1.26007438926322       -1.39064275491633       -2.44566938095509
N           -1.54886712157376       -0.79249348733260       -3.73681473178240
C           -1.65638126651961       -1.57563485771145       -4.81403303317652
C           -1.85766867932038       -1.02973465129347       -6.06577384075071
C           -1.93983953378846        0.34614578698299       -6.20359040001755
C           -1.82194593822113        1.16203234458068       -5.07570281810013
C           -1.62596589252767        0.53691200388636       -3.85266110414435
C           -1.90042418491993        2.64322418253477       -5.17820326848110
H            0.52187662476815       -0.97243969546077        0.54178116508131
H            1.10842534775441        0.56892220337475        1.14373945898960
H            2.20543574416451       -0.50723597360866        0.28634136257910
H           -0.22901639512639        0.86053403301201       -0.94461024876406
H            1.41886706582239        1.44655617576624       -1.09400234936276
H            0.90612229990228        0.25953042050971       -3.12637414657191
H            2.12603737177912       -0.61496088652989       -2.21700944725979
H            0.60953942978475       -2.23281237701315       -3.10516001413446
H            0.39669789691429       -2.18241111331473       -1.35925067178024
H           -1.78081442464669       -2.34746650972094       -2.37773690464074
H           -1.62885383940649       -0.73533742012995       -1.65642684158296
H           -1.58476522058764       -2.64198183211476       -4.66307710434088
H           -1.94881095960935       -1.67871563986631       -6.92154569329543
H           -2.09599520833923        0.79038825949143       -7.17458335076372
H           -1.53853423809841        1.11648087203829       -2.94558631609822
H           -1.09319808231503        3.01741130193395       -5.80642038214604
H           -2.83593230956993        2.93897224216107       -5.64925585842938
H           -1.83202779149496        3.11679700309271       -4.20387432003703
