102
 energy: -155.501233307884 gnorm: 0.000523718530 xtb: 6.7.1 (edcfbbe)
C            0.17941294915103        1.07869142251962        1.10757417770621
C            0.62771199746188        0.90947995668226       -0.33884063251958
C            1.42579216955060       -0.37419753916304       -0.57261861062331
C            0.66541280214162       -1.67401728035173       -0.29486087267064
C           -0.65287199594241       -1.83706118701835       -1.05632216534339
C           -0.52967343757618       -1.71794586077175       -2.57635929075425
C            0.21565209052111       -2.89163643892003       -3.22343246386012
N           -0.62522242609599       -4.05128320171208       -3.39709714219821
C           -0.58512594210240       -5.16579242861900       -2.58811614947194
C            0.12382861827444       -5.44172502551529       -1.43158676602009
C           -0.05748623921212       -6.68613715187432       -0.84592152813212
Cl           0.80055372257082       -7.06082001413342        0.59544240049475
C           -0.92459268402616       -7.63553081378821       -1.40720065162303
C           -1.63518689490647       -7.36017268180050       -2.56647039755473
C           -1.45690106863363       -6.11607206011360       -3.14751621535607
N           -2.00561509048834       -5.55114057324263       -4.27422898625880
C           -1.51099481323842       -4.27909458926083       -4.41427600521798
C           -1.94340263351103       -3.44126020332646       -5.43676034175101
C           -1.55950807195785       -2.16565142743677       -5.81799310219743
C           -2.11490061054143       -1.60678340997246       -6.95798527001660
C           -1.80743129047016       -0.43891976826616       -7.64982574496125
N           -1.02695438415562        0.62015198323396       -7.27819635252117
C           -0.43470315307518        0.84274173437683       -5.98139199408056
C            0.95440550285963        0.20184568977885       -5.84428746831407
C            2.10019468198844        1.07538488671490       -6.35770943049774
C            2.34317584212452        2.35297580099182       -5.54945621680961
C            2.58240679618983        2.14385614901675       -4.05146733003851
C            3.73687945628101        1.20283028395401       -3.70279606888019
C            5.08557469247665        1.69754112655477       -4.21048132581640
C           -0.97426370618413        1.51805537906229       -8.32182426819258
C           -1.76233805773620        0.99285584210461       -9.36064797599097
N           -2.27894779535837       -0.20077428507568       -8.91489759199061
C           -3.19358863842161       -1.00589382887488       -9.69254713149946
C           -2.49529746951662       -1.97506051463988      -10.65462327285385
C           -1.75583570763648       -3.12243754270189       -9.96809077484897
C           -2.63986328457063       -4.04692770561316       -9.15366891381646
O           -2.22749301668941       -4.69703875571486       -8.22195019611843
O           -3.89890130944043       -4.06535534419068       -9.54809333207084
C           -1.91059964064800        1.66517022222490      -10.56216468993923
C           -1.25763808814161        2.88106081591716      -10.70267315208540
C           -0.47909787207977        3.41044909008398       -9.66231731812783
C           -0.32981020064475        2.73546823801142       -8.45958435723582
Cl           0.31149032655609        4.92201125925935       -9.87247024445520
Cl          -1.40984909076452        3.74683846033773      -12.17917331127859
C           -2.82136717474576       -6.29217475901636       -5.21121475570920
C           -4.30464759231849       -6.32566727862824       -4.82511784487205
C           -4.99726134125337       -4.96654933053355       -4.93351909603649
C           -5.10075406727333       -4.49119001071380       -6.36596829887759
O           -5.00437982304139       -5.20508111868341       -7.32664149853429
O           -5.31551637541013       -3.17625446525837       -6.53110740733364
Cl          -1.11797565783019       -9.16631822837706       -0.65042076350169
H           -0.53318906867429        0.30909483088588        1.39283463788187
H           -0.29722012584119        2.04648164128789        1.24246572823620
H            1.03333082961357        1.02296040388979        1.77824099780750
H           -0.24466272344471        0.93627997419887       -0.99567984313366
H            1.26383635474804        1.75504162823179       -0.61120409263245
H            1.79627682138962       -0.37965682759968       -1.60100252916266
H            2.30195625426290       -0.35812217957708        0.07902977062629
H            1.33687493288956       -2.50473920418257       -0.52444422949781
H            0.44337282593615       -1.73628086321529        0.77079989501711
H           -1.08692887543649       -2.80775041919573       -0.80451371831711
H           -1.35144723211281       -1.07325739708724       -0.71261952473351
H           -1.53190037387699       -1.65787382930891       -3.00677013342742
H           -0.00764831792096       -0.79246539297699       -2.81887355514387
H            0.61724453695496       -2.61352496449750       -4.20084706400872
H            1.05717982120049       -3.18671732854846       -2.59675828042501
H            0.79450730857571       -4.73460257304365       -0.97485837309243
H           -2.29467607992390       -8.10307494179348       -2.98150966702104
H           -2.65603197604991       -3.90488346990937       -6.09804014794229
H           -0.81553196836823       -1.62967203956506       -5.26194689442537
H           -2.84050262403649       -2.22965493102892       -7.45559974258298
H           -0.36316862215834        1.92064936154033       -5.83223791611304
H           -1.12176701498532        0.44954967347549       -5.22805140494482
H            1.13287716209650       -0.02629198613490       -4.79323447928719
H            0.96275977074865       -0.73950528211778       -6.39868801978648
H            3.01006420251649        0.47410132798930       -6.34306226678109
H            1.91154604513308        1.34463762886547       -7.39913891842134
H            3.20791971348681        2.85892185579371       -5.97964689154410
H            1.49564148951558        3.03481058050259       -5.65698702963871
H            2.79029246187487        3.12088081789351       -3.61013310206725
H            1.66696232958641        1.77327155389558       -3.58221920036758
H            3.78233660673000        1.11573200120106       -2.61452428268965
H            3.54322652791497        0.20414064362741       -4.10076822908898
H            5.27736067237805        2.70715630893224       -3.85558656813222
H            5.88214019559884        1.05211419415061       -3.84882623440226
H            5.12199922801007        1.70103026634456       -5.29667352859713
H           -3.86069948563342       -1.55353792177470       -9.02607624272600
H           -3.80685913424199       -0.31454652423245      -10.27527473359526
H           -3.26035998367502       -2.39131373913124      -11.30976947274217
H           -1.78413165001698       -1.41833718124728      -11.26717546966179
H           -1.28443055137529       -3.74506273016836      -10.73288213879775
H           -0.96135985489859       -2.75859219235670       -9.31426049066140
H           -4.44178773618860       -4.64209473954891       -8.95743585849733
H           -2.50277143620213        1.27713278691404      -11.37322037958835
H            0.27541257919124        3.16659646989775       -7.68106489148677
H           -2.69036521473634       -5.88612561767635       -6.21596693850878
H           -2.44307715344903       -7.31702910317813       -5.22241988627769
H           -4.80454334698118       -7.02557355096546       -5.49471510205375
H           -4.40535255283851       -6.69191051890712       -3.80259574633752
H           -6.01941375821386       -5.05623314908632       -4.55233437211460
H           -4.47827024292113       -4.21783725664166       -4.32893439248935
H           -5.43715656873129       -2.69752961245315       -5.70098090607354
