20
 energy: -28.790544579995 gnorm: 0.000702672288 xtb: 6.7.1 (edcfbbe)
C            1.57807866215048        0.38756451510666        0.93398525517236
C            0.86762060100644       -0.78192847103763        0.35595109400531
O            0.57039361243502       -0.94350082977776       -0.79107208434653
C            0.50320218097337       -1.88354356429892        1.40200153062039
N            0.18579833178863       -3.09985892114223        0.70206631856252
C            1.01345072199300       -4.15439242759141        0.74270575792965
C            0.79158706850279       -5.26329152105253       -0.04254142499506
C           -0.29525566711876       -5.27660963416821       -0.91108748228283
C           -1.13523025074053       -4.17344089471720       -0.94475858147548
C           -0.87000995094726       -3.09418685991538       -0.12494704593582
H            1.43632079516470        1.25952820582793        0.30003021547864
H            2.64642233714051        0.16841321792235        0.95322322533072
H            1.25834941213396        0.59832865874624        1.95014390763145
H            1.32990800964665       -2.03521111620279        2.09623786307750
H           -0.36652902795496       -1.52067340718431        1.95769644069164
H            1.85586790054175       -4.09997706662337        1.41657095417528
H            1.46670677871288       -6.10170957478496        0.01701706960639
H           -0.48047394297646       -6.13011008973513       -1.54396209106644
H           -1.98893934385154       -4.14252301976209       -1.60252222703287
H           -1.50967822860087       -2.22499719960907       -0.11604869514669
