77
 energy: -80.083904911743 gnorm: 0.000193005173 xtb: 6.7.1 (edcfbbe)
C           -2.01855273776984        0.55075791657943       -0.40188740411369
C           -1.85227037061488       -0.93332495013166       -0.70531781374033
C           -0.50426713199600       -1.49751150406137       -0.25258468902195
C           -0.22710389521359       -1.38865983788356        1.24894568484015
C           -1.24437416695920       -2.09602280606737        2.14665563766526
C           -1.29071831702242       -3.62297462670823        1.96435987162455
P           -0.47012426205280       -4.54499233976230        3.31450351353293
C           -1.20520723973719       -4.02020904183690        4.91107706590466
C           -2.71242104908767       -3.75781459706948        4.91288750780347
C           -3.57466019243579       -4.98640040606270        4.62585362189300
C           -3.53190379400003       -6.07200645496690        5.70447849714283
C           -4.05062907174815       -5.63502495463625        7.07653094404404
C           -5.50735980633916       -5.18862971129281        7.05910207182919
C           -0.66791592971734       -6.36819228226004        3.15794415247574
C           -1.21676778673222       -6.87837534888772        1.82377433940985
C           -0.18749696095141       -6.85817843661919        0.69353744991421
C            0.84428234133435       -7.98718129253416        0.76841886434205
C            0.28524645459375       -9.38437303738050        0.49026846431058
C           -0.21868118654562       -9.56221752215440       -0.93665723945801
C            1.30364782338637       -4.13115529124135        3.54657747765266
C            2.32441978087831       -4.80908707694492        2.62924657279090
C            2.51021182766253       -4.11639944697763        1.27814103765558
C            3.37732557106256       -2.85635385713011        1.35271399489155
C            4.87261171095253       -3.13678212959360        1.52039252785867
C            5.51333282480369       -3.74139258531924        0.27697916255104
H           -2.06890750436654        0.73755490975808        0.66805892558151
H           -2.93642581677832        0.92201771065374       -0.84977424231976
H           -1.18687950275009        1.11768854056667       -0.81280106916823
H           -2.67006075334737       -1.49563287141704       -0.24935366522544
H           -1.92714916193925       -1.08019566093496       -1.78437897676393
H           -0.43854115903115       -2.54043461379979       -0.57452247849190
H            0.28832786684192       -0.95553331409978       -0.77195838728821
H            0.77100366678098       -1.78190528344204        1.44534062059910
H           -0.21679484011256       -0.33392057852702        1.52509449755726
H           -1.01397622804655       -1.84539836201421        3.18554715221907
H           -2.23261617513851       -1.68859210470849        1.93339013018540
H           -2.32541600645328       -3.97614019231043        1.95425133843426
H           -0.84337041030004       -3.91416817972308        1.01359913342487
H           -0.95010375799479       -4.79366453119063        5.64123658674602
H           -0.67962270926768       -3.10802668688692        5.21190551498960
H           -2.97862602363213       -3.35765659926703        5.89202974011622
H           -2.94692249286212       -2.98413227572778        4.17988805769531
H           -4.60725605836672       -4.65526046043742        4.51369879246973
H           -3.27381785741172       -5.42356502734382        3.66840508896985
H           -4.14090441795780       -6.90965063455164        5.35784972024520
H           -2.51117853291667       -6.44522082236742        5.82801029638814
H           -3.95291786750017       -6.48631683073236        7.75301098359248
H           -3.42708960630635       -4.83390570413286        7.47860496515098
H           -6.13489705838679       -5.95398244433218        6.60876323030480
H           -5.85519806524756       -5.01847682913934        8.07430476565304
H           -5.63512873158730       -4.26312191477487        6.50321070687293
H            0.30814673592968       -6.81674673948917        3.35895167226194
H           -1.33477686334020       -6.67101871594265        3.96812965441808
H           -1.56011587513356       -7.90272514418999        1.97287985800203
H           -2.09068718242369       -6.29146667079025        1.53409769412899
H           -0.71010224103048       -6.92885572695232       -0.26004836864791
H            0.33938262796714       -5.90023135973088        0.70858035828367
H            1.62707460442636       -7.77990911128875        0.03603161837541
H            1.31715280931195       -7.99579624289824        1.75408093377517
H            1.08582889221711      -10.10429785706807        0.67018198082253
H           -0.51879165931156       -9.61736513734531        1.19117027507869
H            0.55819475500668       -9.30052399976019       -1.65106789875139
H           -0.49919221782130      -10.59850858986771       -1.10404472569536
H           -1.09208021122688       -8.94512377894381       -1.13230106245910
H            1.39347444162165       -3.04351541360160        3.48270851791243
H            1.50504119341149       -4.41656739742998        4.58593691219459
H            3.28386200417082       -4.81777127829524        3.14840226874584
H            2.04487258977055       -5.85060695200695        2.46618036926180
H            2.97532623263283       -4.81879384585009        0.58681625471484
H            1.53272198827268       -3.85675776024836        0.86583249455589
H            3.23795761011000       -2.28294578556177        0.43409859089440
H            3.04538337998180       -2.22831060944459        2.18378209193720
H            5.37039516589224       -2.19149084623739        1.74383002436615
H            5.03928191477359       -3.79904390377058        2.37237435491209
H            5.34733274785161       -3.10179335601783       -0.58660520642527
H            6.58509491556800       -3.84394344881602        0.42345933114229
H            5.11101640964958       -4.72748794659272        0.05818926428905
