83
 energy: -86.411476814488 gnorm: 0.000278003107 xtb: 6.7.1 (edcfbbe)
C            2.50722281247654        0.23988955180698        0.97102389795493
C            1.88534295790945       -0.22209236055184        2.28326327851241
C            1.54229649056471        0.92996662847793        3.22941821718771
C            0.52701505925605        1.93532443218456        2.68127748644566
C           -0.82545844071187        1.33848314983660        2.28695490253515
C           -1.56504254973235        0.60467015967021        3.40898121047696
C           -1.84546748635556        1.44215267627987        4.65930872904738
C           -2.73678655958421        2.66887950585714        4.41567386530867
P           -4.51445964357055        2.37529429460461        4.71694151239560
C           -4.76947997259697        1.84108884478947        6.45139435475287
C           -3.90372346374392        2.53947018879492        7.50140538352337
C           -4.17330935647481        4.03641497655512        7.64757593582226
C           -5.56006303194084        4.39344894134588        8.18906975002220
C           -5.87890855123721        3.82525497707697        9.57443901765497
C           -4.90148466184265        4.22496919560792       10.68163158856715
C           -4.77785560618914        5.73098397248716       10.91938851248167
C           -6.08229185173161        6.37693461306773       11.37078839524431
C           -5.54646803577484        3.85661643140027        4.36278746560188
C           -4.83438648606503        5.03388330800258        3.69123400299304
C           -4.61450835407509        4.84392897611387        2.19012300877158
C           -5.88322176683478        4.97345772401900        1.34290601112151
C           -6.54737060769432        6.35233188029609        1.37484469488154
C           -5.64941951319852        7.51846598197247        0.95646257367031
C           -5.05556192607906        7.40395811622207       -0.44855884019336
C           -6.11212181690780        7.35923818761895       -1.54587868201858
C           -5.16626052617415        0.96592894870814        3.74626792738617
C           -5.16953579949537        1.16726245507828        2.23618486055108
H            1.79852907668262        0.80817687212563        0.37377935691713
H            2.82595051444928       -0.61909473821133        0.38612712907401
H            3.37714950449903        0.86397647592032        1.16113878395058
H            0.99315311016888       -0.81591072465527        2.07460883282170
H            2.59429755053910       -0.87557945214568        2.79609440432962
H            1.17642133474194        0.51256469626205        4.17058381749748
H            2.46087119330087        1.47564223852341        3.45617652524999
H            0.37943912724771        2.72060541417127        3.42705388818368
H            0.94940422438886        2.41667191689726        1.79842723712683
H           -1.44935255287040        2.14257716058945        1.88529582286735
H           -0.67475632008060        0.62831555707602        1.47324017702337
H           -2.50023421706203        0.21267379951238        3.00501755935080
H           -0.96611881390065       -0.25302304479454        3.71690164203576
H           -2.29314872972370        0.79494310420266        5.41824570857633
H           -0.89190530782979        1.78794149278758        5.05908268002743
H           -2.45552725990779        3.48165869486173        5.09147965673286
H           -2.61098151031507        3.03708789424081        3.39689828973507
H           -5.83095072885450        1.98186124219415        6.67343418876052
H           -4.57330451371078        0.76446720969839        6.47648703776741
H           -4.08098634155708        2.05001572862031        8.45973124267098
H           -2.84934735965654        2.39129378275443        7.25942547765526
H           -3.42299676869892        4.44934736538999        8.32233138361306
H           -4.03512960059940        4.52386164940121        6.67630776832893
H           -5.63355288874188        5.48109538840776        8.22737704627144
H           -6.33606119088323        4.04799147356933        7.49937630221500
H           -6.87974456491346        4.16067408808201        9.84921260205739
H           -5.91616546921869        2.73426706684241        9.52428719601503
H           -5.24062065726164        3.75660210663124       11.60807809823236
H           -3.91106379016689        3.81982064866478       10.46184660694010
H           -4.02382987739642        5.88645648146358       11.69383588101996
H           -4.41832818772719        6.22709557049873       10.01551760548798
H           -6.47608266057043        5.86571571083691       12.24603912437055
H           -5.91331495460632        7.41838631328297       11.63239826601323
H           -6.83393300944627        6.34571943713146       10.58580480158252
H           -6.38298077728765        3.52321464654292        3.74371363171856
H           -5.95938062598096        4.17677328689512        5.32212489387577
H           -5.44115604410410        5.92635891368107        3.84609917095723
H           -3.87505052878201        5.21534977593273        4.18033516571189
H           -3.89283793097745        5.58633820935354        1.84968925607985
H           -4.17816373351337        3.85736885994449        2.01016952152696
H           -5.62225689316338        4.73141348053046        0.31192697276710
H           -6.62549335239853        4.23669870587735        1.66337918469742
H           -7.41370052150073        6.31827047963292        0.71315953470548
H           -6.92814809431320        6.55499306269838        2.37890017923503
H           -6.24774029436948        8.43079492302111        1.00452565137681
H           -4.83532255894517        7.63220827856524        1.67626105055934
H           -4.41591525054739        8.27375555054331       -0.61301573390922
H           -4.42003631081459        6.51865880201368       -0.51817706325967
H           -6.78593284246894        8.20823633851761       -1.45884363494247
H           -5.63859395903300        7.39928322619434       -2.52359999380135
H           -6.69967363647800        6.44592342000208       -1.49431476683493
H           -4.57237603216401        0.08770159574225        4.01421351453532
H           -6.18664862367613        0.79736614382816        4.10731869278162
H           -4.16686519562743        1.34644519560236        1.85549387966739
H           -5.55414041031361        0.27179073447183        1.75372377857999
H           -5.80496605503901        1.99954199261143        1.94533591288513
