30
 energy: -35.277392976092 gnorm: 0.000657670884 xtb: 6.7.1 (edcfbbe)
C            1.15121592250018       -0.35823358981349        0.60094978008718
C            0.60664072584900        0.61577483927338        1.63911824710967
C            0.95687458253960        2.07582629314021        1.34806575195867
C            0.25273076463026        2.65858148727611        0.11241132054464
N           -1.18420941665640        2.77702432879733        0.32082050209741
C           -1.94081350059653        1.72519545733753       -0.02990306420110
C           -3.29876040453333        1.71707665270922        0.17732586362275
C           -3.89021662250244        2.83563528947985        0.74450106328912
C           -3.11309265525323        3.93466763100639        1.09306881647795
C           -1.72636006607841        3.87609508452469        0.88472158295353
C           -0.84811670404165        5.02423038012717        1.24319772081068
C           -3.76292354684106        5.14686134020845        1.67233214933281
H            0.73152354676139       -0.19068744075282       -0.38871711967893
H            0.91517822508132       -1.37758043911466        0.89213664383481
H            2.23193421621292       -0.26996968581361        0.52932646319336
H           -0.47644219769522        0.49886110722367        1.73600191881761
H            1.03984617809508        0.36109376720925        2.60731220700683
H            0.71546703403573        2.67541657840293        2.22749132761326
H            2.03101275095585        2.15528387508347        1.17652777842938
H            0.66829067494731        3.63549531393953       -0.13172398441616
H            0.42259865641127        2.00065308629749       -0.74048243632344
H           -1.43932800866380        0.89089833964628       -0.49414824255301
H           -3.88330145835569        0.85835116118959       -0.10815419835772
H           -4.95627246785946        2.85985331450883        0.90736444433696
H           -0.56203804012163        5.57273875134230        0.34356642633417
H           -1.36734961854539        5.71610427523891        1.89762238084823
H            0.06095497610896        4.70510741877584        1.74565234328888
H           -4.84170410666234        5.02471630452194        1.68838437332316
H           -3.42898505336556        5.31792132002314        2.69483605277738
H           -3.52818438636013        6.03304775820955        1.08582388744239
