36
 energy: -38.345071511443 gnorm: 0.000197153529 xtb: 6.7.1 (edcfbbe)
C            1.07988827292221       -0.49327533960123        0.29289064498912
C            1.04176965238706        0.86522440647492       -0.39631626709130
C            1.45394322843312        0.81593564010616       -1.86964337809208
C            0.64163390796512       -0.14643232045892       -2.74812800078832
C           -0.88184105669765        0.01875819683766       -2.71602364960474
N           -1.50893245642802        0.92934187448523       -3.72869346610808
C           -1.34126217715813        0.35483905786915       -5.07473818332549
C           -2.96160836521160        1.02152659470859       -3.39173313253987
C           -3.72941550032000        2.03092429238687       -4.23683597476784
C           -3.09881583790553        3.41286007055787       -4.10858173658806
C           -1.62683612607499        3.33198373313771       -4.49538863001316
C           -0.90212266443443        2.28631853446793       -3.65390395257689
H            0.32077116771557       -1.16670904672952       -0.09839864428459
H            0.90229225496585       -0.37272319328190        1.35787772053991
H            2.05437884114869       -0.95643655265095        0.16358648313099
H            0.04717215142788        1.30573706304464       -0.28455640233582
H            1.73624667970504        1.53510742380753        0.11267556935856
H            1.43320147625648        1.83035048431813       -2.27008788041955
H            2.49106652808462        0.47969719337128       -1.91837474621154
H            1.02419926686713       -0.09692124968810       -3.76772177397356
H            0.84710450415987       -1.15767032823440       -2.39520405046188
H           -1.34679355463416       -0.95871939018983       -2.86064553734736
H           -1.16751998554624        0.37810091675284       -1.72663312611691
H           -0.28628555596156        0.28934311986231       -5.32928733680628
H           -1.77244746950626       -0.64396610703339       -5.10797357617981
H           -1.83464829478471        0.97216983579111       -5.81905356844990
H           -3.03750920982761        1.32204093742247       -2.34416201596375
H           -3.39970553157881        0.02711745763647       -3.49616675602611
H           -4.75701630790130        2.05102253185761       -3.87322062045816
H           -3.76709879038466        1.72685743639918       -5.28301152824456
H           -3.61640496701187        4.12285955590600       -4.75108882996535
H           -3.19197433891061        3.76683192129942       -3.08031926524580
H           -1.52878407963762        3.11494918741294       -5.55947538945837
H           -1.13954141902488        4.29119295197414       -4.31901447776654
H            0.13623845509488        2.21222887857099       -3.97605834706714
H           -0.92535269819236        2.59467423140690       -2.60658017373838
