95
 energy: -99.064390599478 gnorm: 0.000449122145 xtb: 6.7.1 (edcfbbe)
C            0.52891059730515       -0.61393251967579        0.79426802097835
C           -0.70788564175538       -1.05844137832595        0.00928431621301
C           -0.47580553230180       -2.40074337251847       -0.69052322526119
C           -0.28996357153571       -3.56414437947475        0.27650229738595
P            0.37008060870359        1.01816673347658        1.59962363294980
C            0.79388134628260        2.37235063204395        0.43935317081103
C            0.16609268842431        2.38795107589577       -0.95654720976611
C           -1.34030271568430        2.64290967355495       -1.00904247562448
C           -1.80806743605478        3.91771624078491       -0.30536733304909
C           -1.21014436678993        5.21342284637908       -0.85753524896264
C           -1.54703512787737        5.50427440169788       -2.32160811659177
C           -3.04284790201043        5.57429608119320       -2.63878233003073
C           -3.83893857792527        6.56687603087666       -1.78922637487419
C           -3.37496372881311        8.02078880140135       -1.89025138202601
C           -3.49459036028515        8.64074758967066       -3.28355152657115
C           -4.90991135468457        8.65504518493256       -3.86531909889929
C           -5.96113900235964        9.34613936606724       -2.99434769066128
C           -5.66324339796278       10.80841179283416       -2.65844378629583
C           -5.55536070802247       11.73984933556966       -3.86697465012423
C           -6.81115701569485       11.81717289227240       -4.73743313238693
C           -8.08158631614907       12.25577017015811       -4.00554798837006
C           -7.99513626651903       13.62076755939048       -3.32123684430409
C           -7.75069775354242       14.76744051179946       -4.29455606106173
C           -1.30698331199150        1.24946845118977        2.28975773035240
C           -1.73202423818019        0.21090131620692        3.33903672210042
C           -1.51052893179157        0.67722167705042        4.77992705036572
C           -2.49689363659013        1.75907976034790        5.20447257127395
C            1.62214828305400        1.20990118864265        2.92693916808282
C            1.90209919139443       -0.03509457440030        3.77908890789844
C            3.09471033672836       -0.84697653322691        3.26510223359834
C            4.43163261620292       -0.18962953485155        3.58770656391320
H            1.39821165100642       -0.55708306987841        0.13101953060276
H            0.74961835134571       -1.34457366916922        1.57540611894735
H           -1.55972604308082       -1.15733116795714        0.68503172236663
H           -0.95995119432170       -0.31361901553577       -0.74663265125152
H           -1.34318067263568       -2.60349376253604       -1.32029393885346
H            0.39468624989133       -2.32587258386918       -1.34507401401241
H           -1.11753350843018       -3.61523621898381        0.98053610788620
H           -0.26096390863722       -4.49877050852886       -0.27586429478766
H            0.64027024424427       -3.48239634767968        0.83362790612862
H            0.58606913787186        3.31058154792042        0.96157310253586
H            1.88123040548128        2.29868650774868        0.32130236663964
H            0.67013052594247        3.17563837374084       -1.51937682364261
H            0.38569226639959        1.44667496898663       -1.46502969737757
H           -1.62745978572894        2.69707464467800       -2.05962866281512
H           -1.87307757250483        1.78994861874539       -0.58063799074989
H           -2.89380530285875        3.96705414358139       -0.39193074889269
H           -1.57982520760986        3.85711427330304        0.76256130997396
H           -1.57338764137094        6.03783972004299       -0.24235868410359
H           -0.12253526018459        5.19442887593755       -0.75091070087520
H           -1.08223854256124        6.45468751714492       -2.58814068520506
H           -1.09553815364864        4.74165691938360       -2.96091990536236
H           -3.15010713515113        5.84042581632802       -3.69130727065259
H           -3.48795130615762        4.58348128521980       -2.51701666200822
H           -4.88562075188428        6.50561723363973       -2.09129448668576
H           -3.79493001286513        6.26490355112000       -0.73984638193127
H           -3.96336814290323        8.61257167408507       -1.18677351493895
H           -2.33260862582556        8.09303212699347       -1.57115617873971
H           -3.12117692958098        9.66509758148407       -3.22937975941675
H           -2.84454216386431        8.10274484196384       -3.97752805491502
H           -4.87007818627231        9.14890981956143       -4.83791653489647
H           -5.23712826824863        7.62823208109950       -4.04541335009750
H           -6.92109499828087        9.28646189884891       -3.51055449089582
H           -6.07122553795603        8.79567834026362       -2.05703277525132
H           -6.45237904743446       11.17201546543034       -1.99737281761762
H           -4.72757805690108       10.86658641905877       -2.09768802635103
H           -5.31033396434289       12.73979943629569       -3.50342509839348
H           -4.72271903153758       11.41890479702897       -4.49692312322688
H           -6.61393743610004       12.51100566971727       -5.55692541360277
H           -6.99842556727278       10.83991712789875       -5.18804812172424
H           -8.89698685816823       12.28336999816319       -4.73311683112395
H           -8.34399589437577       11.50586931566156       -3.25623231005086
H           -8.93912988860211       13.79762237597571       -2.79944749728988
H           -7.20614382392797       13.60914369064444       -2.56732108339509
H           -8.50617518599384       14.76943475889621       -5.07717944798874
H           -7.79648615797337       15.72073866879878       -3.77288686138006
H           -6.77227428930916       14.68456635520347       -4.76050749295122
H           -1.33642661012106        2.25536813447266        2.71672123892253
H           -1.99553036461523        1.23775384741862        1.44298552494087
H           -2.79636952608003        0.00463531756070        3.21228903465636
H           -1.20274433984011       -0.73026131531895        3.17245301617294
H           -1.63459033170725       -0.18260274246777        5.44002334940293
H           -0.49028658163450        1.04275950192053        4.90522025966165
H           -3.51837791151924        1.39736768880246        5.12039303523006
H           -2.32067725219120        2.03653631195383        6.23979025142633
H           -2.40223442545668        2.65688392837102        4.59765716210698
H            2.54942985778983        1.54163506891818        2.45305632436215
H            1.26546208922352        2.03892130055076        3.54601432186016
H            2.12258449477289        0.28016941072755        4.80023350812988
H            1.01657429841934       -0.67105172725564        3.82772917924674
H            3.07117397621098       -1.83159698681166        3.73456791435114
H            3.01391051744603       -0.99120766862861        2.18528058590231
H            4.55094545192280       -0.07854312670229        4.66227320551778
H            5.24766666157350       -0.80415777670625        3.21845725355800
H            4.51968244449140        0.79375371565792        3.13127114186241
