61
 energy: -80.941356280848 gnorm: 0.000319140283 xtb: 6.7.1 (edcfbbe)
O            1.83472734861525       -1.34651953251569        1.23479818554727
N            2.51462681105113       -0.64820605796611        0.50287754488602
O            2.79798197267652        0.50150847736134        0.71289129194091
C            3.13966412950114       -1.31568880554564       -0.62083642119578
C            4.29722300393139       -2.03508102791467       -0.29200381813002
C            4.82568741575824       -2.10715358593033        1.12915720051539
N            4.40202431145251       -3.33549129526570        1.77647237588791
C            5.09118783577755       -4.50898870953336        1.79577109117332
C            4.32135822166708       -5.41892525860028        2.45424701434142
N            3.17143536729756       -4.79034540931875        2.82337880520772
C            3.24712068345986       -3.53116216716869        2.40550665417237
C            2.01330743521238       -5.34730984534514        3.54764309374884
C            1.85398223114286       -4.56321312429483        4.85127041649401
C            0.78350946980677       -5.18206033317019        2.65249626676519
C            2.25306373430441       -6.82317026526165        3.84659336375386
C            4.99118241214650       -2.69979441317970       -1.28368282891180
C            4.55991964271378       -2.67406526308719       -2.60743132182327
C            3.40957262444739       -1.95813726472132       -2.88837136578161
C            2.67102516051610       -1.25735874134260       -1.93066807479693
C            1.41599597744864       -0.54063326286518       -2.41515532576894
C            1.80804156388679        0.43209793220806       -3.53907932013337
C            0.44368158266113       -1.60577568528806       -2.94919152670703
C            0.67443191720921        0.27223274270174       -1.35221029193384
C            5.36107510243046       -3.40416170423017       -3.67043959933915
C            6.76479306543596       -2.78454985953671       -3.73218735871515
C            5.45876006984577       -4.88959988330645       -3.29344469670832
C            4.72876114596872       -3.30262350860789       -5.06016336105986
H            5.91770299687356       -2.10221280668834        1.10388516430695
H            4.49820573831241       -1.26067952522344        1.73608954755691
H            6.06402773325177       -4.61881146321606        1.36344414995368
H            4.52993609535124       -6.44460845181114        2.67192455557957
H            2.48641666556947       -2.78173752661904        2.52053648819443
H            1.63705665639876       -3.51560991488851        4.66208315762339
H            1.03047024381381       -4.97798374318147        5.42450284206360
H            2.75594879228094       -4.63193131175473        5.45528300760433
H            0.92750486865670       -5.69483739667471        1.70400345322281
H           -0.08242769264545       -5.61502706224574        3.14387075095050
H            0.57021222355885       -4.13523694410452        2.45434710722939
H            2.37659328287890       -7.39813132259889        2.93199747897818
H            3.12083034890754       -6.96296490477653        4.48654660392951
H            1.38914600835976       -7.21986991175071        4.37176097479740
H            5.89088728179253       -3.23217219267698       -1.01881543070063
H            3.05887252749394       -1.92927213398139       -3.90374335538932
H            2.20637863037021       -0.08007343082625       -4.40919708329427
H            0.93194477690966        0.99151688348271       -3.85523332724571
H            2.55397933348378        1.13893588625012       -3.18274107743478
H            0.15323028898755       -2.28741243428447       -2.15192520375799
H           -0.45275123489144       -1.12286610410067       -3.32816151957559
H            0.87945287380001       -2.18821075470666       -3.75539882180660
H            0.33117710985083       -0.34742313778965       -0.52707083829512
H            1.27868640046011        1.09412727581741       -0.97680767338451
H           -0.21352046207516        0.70650202362267       -1.80635255033736
H            7.29672444626001       -2.89621602094255       -2.79131762345174
H            7.34787278884293       -3.27080821424057       -4.50951940791274
H            6.69958540900038       -1.72425114397282       -3.96489355396308
H            4.46531297216893       -5.32346386328553       -3.20101671499162
H            5.99678138964898       -5.42952900882346       -4.06775926428003
H            5.98782719904627       -5.03494072713717       -2.35538860641222
H            3.73364682370837       -3.74122429910037       -5.07463290083531
H            4.67552941331441       -2.26951390372410       -5.39446213148522
H            5.34168783389183       -3.84818656231459       -5.77303619086149
