24
 energy: -38.858927130557 gnorm: 0.000419954011 xtb: 6.7.1 (edcfbbe)
N            1.15958915925885        0.07342930886639       -0.09941349032456
N            0.31604217269423       -0.40466798819716        0.60192980327393
N           -0.61990492159528       -0.75938654147547        1.09573642686116
C            2.57830399471041        0.00406543062837        0.07271529134850
C            3.20799212733528        0.31558552132533       -1.30613495892775
N            2.71682389759392        1.56257837509146       -1.83663194762130
C            3.34166922892808        2.73938383696978       -1.82453720260796
N            2.55006906008447        3.66494997920638       -2.35888392044436
C            1.38108235444725        3.06426989931812       -2.71410625634143
C            1.48511620076057        1.74590853788382       -2.38811925903226
C            2.85694895579468        5.06149015639240       -2.51739322564572
C            3.07351920393025        0.98958655665572        1.14016459821350
Br           2.45127376949324        0.44889227933788        2.93268874464741
H            2.89556173329197       -1.00997417786860        0.35733487556060
H            4.29415084391839        0.35957331469965       -1.21759083386889
H            2.93619955448845       -0.48385180088475       -1.99935498012187
H            4.33524551592091        2.91274305683254       -1.45819228878988
H            0.57153247372739        3.59916534523537       -3.16776620441625
H            0.78223309374050        0.94678107452595       -2.50367420988512
H            2.51071186975673        5.62780067379851       -1.65057052860921
H            3.93115358438014        5.20093623294406       -2.62130763570982
H            2.35818984552543        5.44838782646750       -3.40413954403397
H            4.16144807552619        1.00167995440043        1.18148654275991
H            2.68612820628742        1.99353314784612        0.96757020371580
