25
 energy: -33.534062492947 gnorm: 0.000713848991 xtb: 6.7.1 (edcfbbe)
C            1.28202268476482        0.37195075280822       -0.10487084526381
C            0.24292306123253        0.56953668418087       -1.20377019889282
N            0.65124741065623       -0.08728770090612       -2.42685532550129
C            1.28081985581786        0.47639700266240       -3.45221623765068
N            1.56449083893127       -0.41330152724986       -4.39677981502593
C            2.22963907832019       -0.16563049006702       -5.64725715730280
C            1.10004820438454       -1.64045227945321       -3.96994115154517
C            1.12788643530873       -2.89916568933340       -4.55873588360434
C            0.55909628599113       -3.93178298323957       -3.84303733670681
C           -0.01921051227078       -3.72669213840585       -2.58615352809809
C           -0.05254753308750       -2.48186728941084       -1.99324248369736
C            0.51808715924390       -1.43238713752338       -2.70456483381977
H            1.42887143232708       -0.68410130353340        0.10634989552814
H            0.94327336606584        0.86061943235380        0.80345404132948
H            2.23618252366161        0.80643222872551       -0.39255840710722
H           -0.71761327784602        0.14912114012738       -0.89870823289811
H            0.10903226627841        1.63253699328502       -1.41278673448160
H            1.52262572063798        1.52129523275540       -3.51164841125657
H            3.13889653742227       -0.76484490486173       -5.71021841443376
H            1.57549417681648       -0.43612828357602       -6.47715620454815
H            2.48943078829505        0.88733440063089       -5.72580619122224
H            1.57112265128579       -3.06116610709097       -5.52714191645324
H            0.55793621508520       -4.92546815075943       -4.26133173842694
H           -0.45095788506552       -4.56799647072713       -2.06820272247615
H           -0.50071748425710       -2.33444141139165       -1.02470016644472
