100
 energy: -112.091275923904 gnorm: 0.000423136485 xtb: 6.7.1 (edcfbbe)
C           -0.44817995636475        1.56449613702459       -0.52513585313238
C           -1.03974667387514        0.33418626177013        0.15204796667386
C           -0.09307629195032       -0.31145592556256        1.16508894031970
C            0.29264153360699        0.57856246701290        2.34856231987052
C           -0.88076207643320        1.08059543463250        3.19211336249092
C           -1.76111975255135       -0.01678160383913        3.79353837590369
C           -1.02797185594652       -1.01124629657530        4.69565714042496
C           -0.31906327835496       -0.39106997343494        5.90100233266233
C           -1.22642972758762        0.38615468222026        6.85663959569346
C           -2.38013265787992       -0.42424828087649        7.45181662009323
C           -1.95690043448230       -1.67739413669750        8.22187283507343
C           -0.98921283078593       -1.43189958096386        9.38160249837111
C           -1.48133523616460       -0.44779677611549       10.45139143617861
C           -2.68897584859623       -1.02115853194682       11.18504225874308
N           -3.34149837194434       -0.12661756402374       12.19531309171385
C           -4.47290939252242       -0.88877075751421       12.79277682127673
C           -4.47498249876100       -1.20984167562193       14.14286780382233
C           -5.51675339150474       -1.91755469328970       14.71635546236888
C           -6.58215922958987       -2.31708108404469       13.93464814442164
C           -6.59547047473182       -2.01546398761492       12.58759424652354
C           -5.55474402814171       -1.30703046265514       11.98816156207107
O           -5.54116681056717       -1.01240630032108       10.66302233511006
C           -6.55772857738647       -1.54979795231131        9.81297574688591
C           -6.26615196553647       -1.15401581562772        8.36537996810849
C           -6.87552112723779        0.18792663871109        7.95743778757863
C           -6.25200928341840        1.37339479338694        8.68801029145476
C           -6.82673021823335        2.72265650978722        8.25519069952203
C           -8.28252223190185        2.95809525565346        8.66354288932663
C           -8.56016217351287        2.87022296515953       10.16638018961806
C           -7.71643419457902        3.80335907569631       11.03769286662127
C           -7.85548618632724        5.29117807395696       10.70867663094687
C           -9.27466227198537        5.85028396798028       10.82482531250003
C           -9.90956394620733        5.72239667639590       12.21046167020681
C           -9.14822810890274        6.47666118363176       13.29426029869352
C           -3.87632591971858        1.10567888098797       11.57813521951072
C           -2.34207180251387        0.28645907188963       13.19800229773275
H           -0.29751213202186        2.37174326860904        0.18740118791247
H           -1.11657375328082        1.92332929555495       -1.30464874605558
H            0.50984962067371        1.32354581275223       -0.98069810918667
H           -1.97911750530411        0.60296586032879        0.63876164495497
H           -1.27326479612102       -0.41018558664465       -0.61326946184210
H           -0.55272738136988       -1.22975455606639        1.53690452620446
H            0.82558037624281       -0.59794767038486        0.64689577237289
H            0.98251595580473        0.01940317810052        2.98468829884470
H            0.83864027051342        1.44778835142986        1.97728450867560
H           -0.48149336731929        1.70588287510209        3.99432878930702
H           -1.51434731743027        1.72227685786023        2.57678612740184
H           -2.56607244723284        0.46107682726269        4.35762368408764
H           -2.23160023681776       -0.57889151779078        2.98485795078149
H           -1.74808923655467       -1.75735508129172        5.04048242085446
H           -0.28108597066428       -1.54342348481287        4.10454525108671
H            0.18749502429410       -1.18921864404225        6.44841606873454
H            0.45601150182186        0.29016504188656        5.54647997374251
H           -0.60806575057674        0.79069778680662        7.66184000365832
H           -1.65389202454976        1.23870733600224        6.32621278067636
H           -2.96237744301094        0.23396070142983        8.10402121341306
H           -3.04449159986583       -0.73529589683283        6.64397825399940
H           -2.85366101827939       -2.18635682856051        8.58543021272655
H           -1.47035642682488       -2.36573213872913        7.53070298251017
H           -0.76515282523415       -2.38976751594946        9.85609145261711
H           -0.05305342160226       -1.04397615840075        8.98071796603359
H           -0.65302911762796       -0.27513899831780       11.13970586498969
H           -1.73203187624572        0.49495363799211        9.96755457785276
H           -3.45133750846236       -1.27649155384040       10.45099786776226
H           -2.39528262117673       -1.93245061629124       11.71228774277665
H           -3.66480324501414       -0.92181568436162       14.78848026179384
H           -5.48578279632981       -2.14993169994774       15.76774491741294
H           -7.40332039002755       -2.86646401753395       14.36546181082076
H           -7.43247122168824       -2.33735361026099       11.99228994665745
H           -6.55383305714801       -2.64151255439731        9.91213438312446
H           -7.53779794027776       -1.16498062770013       10.11518188852546
H           -5.18539403291208       -1.13391778492889        8.21505916157160
H           -6.67630026677492       -1.93245844269080        7.72127530272793
H           -6.73257458085979        0.31865547661669        6.88354481578555
H           -7.94928876351765        0.15964881016892        8.14633372562988
H           -6.39845709890086        1.25517349359961        9.76216404584143
H           -5.17670459423835        1.37770275838762        8.48480736799454
H           -6.20600036529095        3.51525059120000        8.67735478429787
H           -6.75708685900774        2.80234546321682        7.16824779638736
H           -8.57507571998163        3.94602867202850        8.30583244287542
H           -8.92320983415462        2.23507868725834        8.15468753911043
H           -9.61590389079336        3.09257011939361       10.32752717085808
H           -8.40117817987718        1.84345409399091       10.50824262255778
H           -7.99675651827657        3.64041423437850       12.08084391935615
H           -6.66089104532972        3.53113679651027       10.94400932150624
H           -7.19704688011187        5.85016211782830       11.37672347258887
H           -7.50150265684268        5.46883696914466        9.69130288993379
H           -9.24009740634552        6.90884801382964       10.55635814894756
H           -9.92008937485014        5.35467837067612       10.09710352982521
H          -10.92435420747195        6.12219644847626       12.15300711119657
H           -9.99299374530997        4.66970424848005       12.48799450381378
H           -9.01660669196672        7.51835775197309       13.01036255061184
H           -9.69835711428442        6.44561241462236       14.23192112014815
H           -8.16699255497870        6.03974651120385       13.46468747615118
H           -4.46792817876673        1.64675511878133       12.31527597095305
H           -3.06313245608949        1.74471238039375       11.24295624274614
H           -4.50793105809909        0.85411700916720       10.73094014183047
H           -1.85711933826574       -0.58175629462694       13.63941092623926
H           -1.58416167190327        0.89655534598879       12.71239957146731
H           -2.81217594405259        0.88635156011165       13.97475114604392
