47
 energy: -54.527483927878 gnorm: 0.000394106871 xtb: 6.7.1 (edcfbbe)
C            0.46224995375794        1.39159214617582       -0.12044745987322
C           -0.44200717233602        0.16867008901964       -0.21338349934032
C            0.16837822084868       -1.08302028079845        0.41998662939783
C            0.46871342196418       -0.96797513131689        1.91605468932255
C           -0.74131591671087       -0.65125101489060        2.79669703969579
C           -1.90152382887742       -1.64557558918296        2.69517302951229
C           -1.53527167045984       -3.09519161825911        3.02511654687447
C           -1.10373670522044       -3.33072299196523        4.47244060075763
C           -2.26424223995698       -3.25544728233737        5.48629465197102
C           -3.22443278723019       -4.37234038523299        5.32740087071400
N           -4.44231257054738       -4.29493562058494        4.77160250844607
C           -5.08687788507516       -3.11000382508984        4.26614831348473
C           -5.01101028415785       -5.53546393533096        4.78915061456396
C           -4.12086573253646       -6.37927993431223        5.36858532071543
N           -3.02103371503282       -5.64250593776988        5.70253614247921
C           -1.84107919071846       -6.20681801808233        6.32403579620811
C           -0.94180065610784       -6.86125776786944        5.30738636067218
C            0.36904432833481       -6.71861594142972        5.29136013716464
H            0.58124343707110        1.71863400253929        0.90950659093603
H            0.03726474642144        2.21610950453305       -0.68777235580855
H            1.44570122565153        1.16847710273979       -0.52767896200483
H           -1.40554472610557        0.39236980446383        0.24921829399117
H           -0.63255488108699       -0.04809650315130       -1.26699299893595
H           -0.50144803923339       -1.92820079555447        0.24385706190114
H            1.10710785305404       -1.30575699957670       -0.09221870811158
H            0.93012284989112       -1.90105072371844        2.24854895597056
H            1.20776382440318       -0.18057003318370        2.06873604515359
H           -0.40376960061905       -0.58525737137908        3.83386986527032
H           -1.12619556423076        0.33380687260480        2.52926749485247
H           -2.69716281609545       -1.29484002201749        3.35866771297276
H           -2.29626812624165       -1.62062542513607        1.67864409844958
H           -2.37966794598289       -3.74884433072401        2.78571659428213
H           -0.71328044183171       -3.39691597851699        2.37667574452653
H           -0.62815385576674       -4.30948315398340        4.54475170594401
H           -0.36453966689582       -2.58241639385258        4.75310651253812
H           -1.84677854763563       -3.28622130424453        6.49544338327415
H           -2.78499925595460       -2.30597321505060        5.37092708300537
H           -5.21925497723676       -2.37725159390953        5.06337260693896
H           -4.49925660335405       -2.66239114573360        3.46474612689165
H           -6.06521047776427       -3.38007224212558        3.87581646391168
H           -5.98874060564240       -5.72586644599495        4.39749152642834
H           -4.19108521420626       -7.42828784723135        5.56994954273577
H           -1.30189208113577       -5.42816485038624        6.86547340091514
H           -2.17833987026104       -6.96144153477822        7.04258501684578
H           -1.44535470924218       -7.49483716091523        4.59065092795123
H            0.98123130608281       -7.22946336213959        4.56993022811219
H            0.88794719395035       -6.10238581428186        6.00715174830813
