32
 energy: -51.491253026562 gnorm: 0.000910934161 xtb: 6.7.1 (edcfbbe)
C           -1.60648754582566       -1.73728721380723        0.12800260209117
N           -1.00601790356175       -0.80855074863412       -0.79050897554928
C           -0.78746872399812        0.51430480862497       -0.54484080963022
C           -0.18856653652108        1.03854598191987       -1.64780864350933
N           -0.06333211784857        0.03071905278155       -2.55795022478974
C           -0.55305635092226       -1.08216734397067       -2.00943485273003
C            0.67957616884216        0.06433755084517       -3.78295779839486
C            1.86403077753490       -0.94119703981182       -3.65961789893918
O            1.87567593648884       -1.69076915148030       -2.71108327325126
C            2.86600088873803       -0.92745389889091       -4.71957493180705
C            3.93527226765977       -1.82683475895840       -4.59909642635692
C            4.90423842300282       -1.89435028299500       -5.57513250256562
C            4.84065312262011       -1.05695983671735       -6.68667930954006
C            3.77692173865342       -0.16597482714316       -6.81632348157333
C            2.79667753616397       -0.10035999672068       -5.84683227284464
C            5.89940381349660       -1.22362855924986       -7.74142263154217
O            6.39810790793758       -2.30316591107004       -7.95798367672830
N            6.22659651821828       -0.10417592218237       -8.42285514260514
H           -1.64282672637574       -2.72763017123492       -0.31957361126383
H           -2.61887523924808       -1.41823973973606        0.37833544490221
H           -1.02018130211259       -1.78474945606232        1.04628519444866
H           -1.06379512535159        0.98243657872121        0.37786182599045
H            0.14325433903017        2.03795082506089       -1.84185234795185
H           -0.59228502884627       -2.04310008063382       -2.48347574044459
H            0.05498098208763       -0.25042341495267       -4.62411992958360
H            1.04416797668674        1.07667920322004       -3.95586268466558
H            3.97482409913154       -2.46845118501167       -3.73222702553119
H            5.71864746870717       -2.59888413124673       -5.50506257615162
H            3.69492689942454        0.45857290733360       -7.69312163606009
H            1.97710221359411        0.58771782199514       -5.98355838374669
H            5.90227489004565        0.80839628024838       -8.16141329427933
H            6.95530863254688       -0.17173734030269       -9.11540498544469
