36
 energy: -41.575745700405 gnorm: 0.000822582728 xtb: 6.7.1 (edcfbbe)
C            1.18662487223492       -0.20889397918567        0.25461317976915
C            0.57473369002245        1.09708333315574        0.73971661915912
N            1.01167121731557        2.33709520795283        0.02454183993366
C            0.40721908468317        2.34435673041552       -1.38207458890802
C           -1.10777347751072        2.36372613519527       -1.35709632685061
C           -1.83744736577819        3.54471899794222       -1.24979003989947
C           -3.22107545108629        3.52026900357907       -1.26222313508475
C           -3.89935398631412        2.32034642956850       -1.39139985457473
C           -3.18516319074961        1.14188568843121       -1.52047231384597
C           -1.80172338205613        1.16506098381487       -1.50569332290226
C            0.96851279753026        3.44164755773789       -2.28187065565260
C            0.52921012183215        3.52125929725386        0.79946341881395
C            1.21868008561393        3.78041301998323        2.13169403712890
C            2.48232909707407        2.36811059499235       -0.07132072816774
H            0.99905930442765       -0.40244323194433       -0.79671930053707
H            0.72581156735194       -1.01624481409183        0.81807691538469
H            2.25577689323597       -0.25564690674910        0.43493519790529
H           -0.51273227668124        1.04589263681760        0.65831898444360
H            0.83290270871155        1.21960057151933        1.79124504206051
H            0.71473188191901        1.38855917739900       -1.81554892057116
H           -1.33907647260243        4.49801474380422       -1.17182879970682
H           -3.76899565196396        4.44562653750548       -1.17813956806590
H           -4.97734673939397        2.30564744277882       -1.40463999458946
H           -3.70166346521266        0.20263233385608       -1.64023699416063
H           -1.26055574634630        0.23811435859528       -1.63012057396697
H            2.01751906477199        3.28305052075726       -2.51401863022638
H            0.41918054493649        3.40553344302782       -3.22003266276232
H            0.84597107082529        4.44099506937718       -1.87617363000034
H            0.67193773181776        4.40112754460800        0.17256110572828
H           -0.54075770837560        3.38532787944987        0.96589429491030
H            2.27048217818137        4.02351830566706        2.01431081678845
H            0.73507338342613        4.64229869173314        2.58513725354391
H            1.12060467804684        2.95542830964446        2.83120678285683
H            2.91992040845368        2.09954668949240        0.88737118133445
H            2.82575391486585        1.66111044948260       -0.82268994428309
H            2.81941861679271        3.36502124643398       -0.34418668500303
