42
 energy: -56.884576098163 gnorm: 0.000408290021 xtb: 6.7.1 (edcfbbe)
C            1.25841226720278        0.17761070500654        0.01349420402187
C            0.37142942936351        0.68088918845144       -1.12050813925227
N            0.79681467324309        0.15127300872879       -2.39974944141142
C            0.64360746075553       -1.11589869368085       -2.77756354838226
N            1.09953030972949       -1.27516855875202       -4.01712012083273
C            1.56811046623902       -0.06526359571120       -4.45962739849046
C            1.38380781801740        0.83835652152719       -3.43240191865473
C            1.70815210412212        2.26299834525743       -3.43089504909884
C            2.42399153080931        2.84554858443935       -2.38644744365763
C            2.74075604266913        4.19120537433054       -2.42846677530350
C            2.34944144705171        4.96609559127798       -3.50743611022607
C            1.64433109763087        4.39044560059537       -4.55256582043327
C            1.32633437955981        3.04628195693455       -4.51984573940515
C            2.15339627496647        0.17526829774427       -5.77878546406309
C            1.45273480056843       -0.14330967390903       -6.94075188284067
C            2.01317809085102        0.11452299467468       -8.17854647729181
C            3.26966519440037        0.69083955918780       -8.26780023300771
C            3.96411264310631        1.02047224347494       -7.11498059325802
C            3.41024222687839        0.76837931602711       -5.87383911110667
C            1.23254895187916       -2.55307680026535       -4.68474466807409
C            2.50192389611303       -3.26138830838575       -4.22147365060067
H            1.18372677153507       -0.90158367319565        0.11940187938437
H            0.94290769142905        0.63463229803706        0.94633746447591
H            2.30018173184586        0.43560631206119       -0.15931761506537
H           -0.66266952189079        0.37112951126731       -0.94733587670901
H            0.40469169004195        1.77007905971673       -1.18177664906081
H            0.20311404872630       -1.88901287433030       -2.17964154931421
H            2.76479219968901        2.24394837710248       -1.55735498488758
H            3.29925903482531        4.63252092361871       -1.61769583996006
H            2.59801874657904        6.01519227907987       -3.53627820663295
H            1.34084892150867        4.98998801173198       -5.39633283766825
H            0.77269748840722        2.59803744622031       -5.33062806263668
H            0.45647476517472       -0.55833314425529       -6.87785829071202
H            1.46378669739843       -0.13036705784635       -9.07424461058223
H            3.70370666178341        0.88903384417595       -9.23506446762154
H            4.93953094159419        1.47614977728342       -7.18161715788356
H            3.94839787481209        1.02345075557345       -4.97339491639346
H            0.35193110611471       -3.15691605275341       -4.45581038321290
H            1.27949687365836       -2.37985890829058       -5.75976080575116
H            2.47541457307750       -3.45127294103140       -3.15120580125555
H            2.59439448764668       -4.21210491069913       -4.73707136721802
H            3.37817611088649       -2.65988069041975       -4.45103453992691
