25
 energy: -38.675327346764 gnorm: 0.000432977787 xtb: 6.7.1 (edcfbbe)
C            0.54680299446692       -0.11111457454915        0.02367789786036
N            0.44308219884853       -1.15826402226717       -0.95529204594669
C            0.86401549989084       -2.44689458201921       -0.77823278413658
C            0.60145072847215       -3.12447664231100       -1.92718933047766
N            0.01840776717885       -2.23887905966625       -2.79089424858906
C           -0.05388235600728       -1.05319841401114       -2.17621017104255
C           -0.34368946835797       -2.41802406914907       -4.21117725952608
O           -0.30841545051110       -1.43653083463443       -4.88962250491687
C           -0.68242325956125       -3.77340288416615       -4.60894504885944
C           -0.43973702213631       -4.12337233304080       -5.94407881236648
C           -0.75414234735667       -5.38909820483909       -6.39521475714932
C           -1.33810697397921       -6.30707825901097       -5.53391698903052
C           -1.61696115658588       -5.95463573456713       -4.22023301824990
C           -1.28991694984806       -4.69797367456471       -3.75066566877118
H           -0.00725938176766       -0.38157047739399        0.92324153209832
H            0.14473007242088        0.81543767744424       -0.37950881472766
H            1.59201061691406        0.04168870558837        0.29560339825205
H            1.31557411165694       -2.78343610542405        0.13320173491193
H            0.80693174146884       -4.14130076480124       -2.19278189202229
H           -0.45774948045994       -0.16730250825549       -2.63016294587408
H            0.01084941129837       -3.39409699993675       -6.59947222484702
H           -0.55152876203389       -5.65954524499743       -7.41939384601171
H           -1.59062457774588       -7.29412190309365       -5.88879071250274
H           -2.09814752340291       -6.66200259968551       -3.56296163730027
H           -1.55305043286260       -4.42166649064818       -2.74002985077361
