46
 energy: -56.470011929920 gnorm: 0.000262182471 xtb: 6.7.1 (edcfbbe)
C            2.38592005110318       -0.43862791076192       -0.15749290136646
C            0.90364771987027       -0.24949731826981       -0.12760510467374
C            0.04881379189945       -1.24688856744608       -0.58256233552780
C           -1.32099714979819       -1.08070999425830       -0.53698366190965
C           -1.88346232147864        0.08688441336011       -0.03451090687182
C           -1.03342803254908        1.08681125826519        0.41755848630461
C            0.33901079468349        0.91598151421692        0.37265662753125
C           -3.39885777860102        0.22157106429337       -0.06252891679539
C           -3.80404568769144        0.77737834274569       -1.41286799715949
C           -4.56681996208603        0.01056340833066       -2.28526402893042
C           -4.91813296022093        0.49567335679940       -3.53279083323977
C           -4.51362260344506        1.75803998551911       -3.94539817868403
C           -3.74011287921859        2.51877794026966       -3.07324989624721
C           -3.38694967610621        2.03730096879122       -1.82851324650967
C           -4.87503515534134        2.28885267048029       -5.29457139742639
C           -3.88416726447529        1.05997106104043        1.12862477603807
N           -5.34941995544781        1.01274577093902        1.43823804606055
C           -5.83445061950363       -0.37360133108602        1.56076256740328
C           -5.55851150545559        1.69955785305023        2.72837230727834
C           -6.12952001948013        1.71003617684570        0.39976466062338
H            2.70914782374384       -0.97177514335754        0.73700205057825
H            2.68351937278604       -1.02733438704588       -1.02163240257610
H            2.90137994825275        0.51779581120540       -0.18415063342043
H            0.46062746968696       -2.16332200691120       -0.97743375474315
H           -1.96351220003048       -1.86852850763256       -0.90332202661386
H           -1.41922705709623        2.01487719453831        0.81270001971480
H            0.98065448758826        1.70727536869123        0.73086084059572
H           -3.79495683295675       -0.79397280420613        0.02314223931660
H           -4.88306874706006       -0.98345857717378       -1.99685657888108
H           -5.50817341940025       -0.12063715567364       -4.19426043521546
H           -3.40130748335862        3.49631623727718       -3.38212535046332
H           -2.76077600970668        2.63922789147418       -1.18702049913686
H           -5.56146965769866        1.62164447108171       -5.80820570544046
H           -5.33605121972603        3.27129871931823       -5.20888999897377
H           -3.97918207957565        2.39828901102125       -5.90437053255699
H           -3.35160443902719        0.71484047476761        2.01832456909984
H           -3.63312739182361        2.10757121269687        0.95823276409661
H           -5.18361533366949       -0.94295048341687        2.22222381376834
H           -6.84251978452947       -0.37746557946891        1.97204378324140
H           -5.86313774417521       -0.85342672686734        0.58561466172899
H           -5.16681477323745        2.71422197388422        2.68442339000710
H           -6.62120383562013        1.74821749628056        2.96013490169241
H           -5.05168429935157        1.16401711436051        3.52929900796797
H           -7.19124712963652        1.65765936790208        0.63454026402977
H           -5.83285309386817        2.75580154727843        0.34582589459180
H           -5.95340535715992        1.25341681685477       -0.57318834831734
