31
 energy: -39.303470956243 gnorm: 0.000217515644 xtb: 6.7.1 (edcfbbe)
O            0.85780545291926        0.12712479888825       -0.16334894027645
C            0.76139907948074       -0.48023820619991        1.10190738677920
C            1.16533547041528       -1.95139347974591        0.97791617468189
N            2.62167651215766       -2.22821119387169        0.82544353093197
C            3.37504241770691       -1.93813965831833        2.09398836122433
C            2.90286975547273       -2.72159558231950        3.29177471876764
C            1.93032647657216       -2.19898325411345        4.13959488672196
C            1.50679121895887       -2.91291505676903        5.24680295407663
C            2.05217103188161       -4.15564561482026        5.52249469070958
C            3.03473899845972       -4.67500344117761        4.69632205823403
C            3.46080285953889       -3.96146214538173        3.58969876336610
C            2.77190762479640       -3.65392656501691        0.47876939064811
C            3.20095556309945       -1.42091565733343       -0.26344080780065
H            0.35468180618683        0.94749360844996       -0.18211823297309
H            1.37982117621186        0.05363584401624        1.83663643595304
H           -0.27375573352236       -0.46998955888086        1.46450363198727
H            0.81625419677735       -2.49676667148642        1.85635065824901
H            0.65988102782507       -2.33946893831361        0.09092844859181
H            4.42583890917135       -2.16367412406997        1.90003712531328
H            3.28870651417183       -0.86944801333896        2.29525842615850
H            1.51371025138117       -1.22060661451994        3.94893215679170
H            0.75662789561650       -2.49313601299567        5.89821174952082
H            1.72296717758716       -4.71046022825117        6.38648229966724
H            3.47775091566866       -5.63326663210385        4.91693167243177
H            4.24697692293844       -4.36618589115399        2.96926621927637
H            2.28392083229346       -3.86050726627038       -0.47188646610746
H            3.82697725725684       -3.90514352492444        0.38743870867831
H            2.32604369650955       -4.27894856944255        1.25034232670733
H            2.62634112318298       -1.56342195509421       -1.17613279303809
H            3.17133693533951       -0.36315345934251       -0.01681077505536
H            4.23336663394539       -1.71726693610136       -0.43785476021733
