63
 energy: -70.069924054639 gnorm: 0.000401704176 xtb: 6.7.1 (edcfbbe)
C            1.25445500215845        0.61830476080253        0.24246819998349
C            1.08158161887429        0.56528527590098       -1.27053810499411
C            1.55826177200477       -0.75029260407334       -1.88768030885221
C            0.80658586101520       -1.99730616147478       -1.41629389016479
C           -0.70466501903959       -1.97001288090878       -1.65144057652165
C           -1.12936216843426       -1.77232864562409       -3.10752290585698
C           -0.65426536654329       -2.85939665210507       -4.07319369791875
C           -1.15590322019860       -4.27054975968522       -3.75870234029917
C           -2.67725559250966       -4.41444363479985       -3.67872961360520
C           -3.43519969687250       -3.97109323794340       -4.93132406934063
C           -3.09665264706847       -4.75248004293147       -6.20214685314371
C           -3.40784475312754       -6.24948611588449       -6.14280883297409
C           -4.86417017268715       -6.59704243238511       -5.82138381567749
C           -5.90115864529245       -5.95467847569717       -6.74679928493360
C           -5.75533098663119       -6.31392286807361       -8.22504124112195
C           -6.06825148552273       -7.78350935402295       -8.54204664097146
N           -7.47181397261493       -8.06879654434394       -8.30658679644058
C           -7.86572071717580       -8.59965476340576       -7.14607978268431
C           -9.20676726835857       -8.80293304573977       -6.88264948073659
C          -10.14933535966373       -8.44672157074396       -7.83141384623912
C           -9.73285853852845       -7.88836239115281       -9.04473531497022
C           -8.37174572423753       -7.71707634766665       -9.23387405112607
C          -10.71343258729725       -7.50076153444847      -10.09331184956502
H            0.61790215098738       -0.11168274270008        0.73603809968782
H            0.99056684693977        1.60466424563443        0.61717645016144
H            2.28766409797563        0.41439592429519        0.51483983662010
H            0.03365881582913        0.73637728121074       -1.52361426924692
H            1.65895004804318        1.37784301160926       -1.71885048998287
H            1.48307868984788       -0.67328904413114       -2.97462864857285
H            2.61589201903173       -0.88377819680077       -1.64604049914180
H            1.23543660912394       -2.86546516075438       -1.92190816996278
H            0.98122235476302       -2.13493789469675       -0.34737725462043
H           -1.12541759730603       -2.90566039093815       -1.27590678528610
H           -1.14297550223606       -1.16452104418892       -1.05883765245306
H           -2.21955948370930       -1.71040358167666       -3.14057094692046
H           -0.74715591817391       -0.81337173108533       -3.46243898723406
H           -0.96799190466736       -2.58116501440215       -5.08218352313120
H            0.43692483893462       -2.88228061051231       -4.07685347465482
H           -0.76610233099302       -4.94932444257251       -4.52110052633619
H           -0.73726947349154       -4.59387222433803       -2.80388535394268
H           -2.91190367245177       -5.45903089661347       -3.46025452482785
H           -3.04545792685872       -3.82509675777286       -2.83713156730723
H           -4.50654051540914       -4.04651116881157       -4.72924984455641
H           -3.22311993620123       -2.91765430229513       -5.11910878487281
H           -3.63456739243901       -4.29954551409902       -7.03889710846325
H           -2.03262757208948       -4.64075442521475       -6.41444477297135
H           -3.12276603157545       -6.69965163579124       -7.09735918021134
H           -2.78099986836250       -6.71203480990257       -5.37936013987446
H           -4.96413714255852       -7.68619720188306       -5.83519768172935
H           -5.08639253477874       -6.27498619081293       -4.80346476731261
H           -6.90390348880529       -6.22160913879307       -6.39712912284225
H           -5.81783076723306       -4.87168640292017       -6.66000443373658
H           -6.41535588527711       -5.67545251396814       -8.81644961450441
H           -4.73322814535324       -6.11859438112237       -8.54585585557799
H           -5.83879019067126       -7.98894541505720       -9.58942264149382
H           -5.46001696089954       -8.43614481706995       -7.91570458751073
H           -7.10130565160017       -8.86800112662103       -6.43329463365018
H           -9.50348365387098       -9.23584089536566       -5.94118500187790
H          -11.20090298471890       -8.59835325128638       -7.64315269545199
H           -7.98786466901176       -7.29110530604849      -10.14957362461447
H          -11.19738202312981       -8.39048995072306      -10.49545390900406
H          -11.49487674093992       -6.87416350497498       -9.66796099675066
H          -10.23711083888410       -6.96764975047858      -10.91052721777663
