42
 energy: -59.266975193855 gnorm: 0.000658509173 xtb: 6.7.1 (edcfbbe)
N            1.39415190056318        1.60947007884485       -0.36549635826359
C            2.19544172087470        0.81707223256746       -0.18231485486182
C            3.29266658052980       -0.07699836072071        0.10055614186157
C            4.58406681099459        0.75506378670484        0.24434263439411
N            4.30978423252509        1.93230254041881        1.06013779569050
C            4.32124306618538        3.17718532129255        0.59341378452242
N            3.91583725897979        4.04872310773728        1.50173736850609
C            3.61285651573683        3.34790798019710        2.65736261415773
C            3.85967893940146        1.98694894000601        2.36735588816607
C            3.64391938724834        0.99334771546676        3.31436312104355
C            3.17900305019592        1.39733159063313        4.54689648984539
C            2.93645638099860        2.73937857765232        4.83130531265154
C            3.13888488628239        3.75531110116163        3.91155521512609
C            2.84549343992151        5.17352166055333        4.27378827666175
C            3.88987711300874        5.47543268204693        1.28771307343026
C            5.02539922488585        6.19808585330904        1.98626744061454
C            6.20313332090241        5.55120823043041        2.33329167060448
C            7.22621811197584        6.25140444021421        2.95094690214969
C            7.08455782526903        7.60216533919851        3.21630944083282
C            5.91434771713395        8.25405419370226        2.86327351836274
C            4.88757353232152        7.55531834538699        2.25474461459977
C            5.74978867379492       -0.05630473879793        0.79579596535501
H            3.06880434852163       -0.62873452095791        1.01590529257753
H            3.40267607030011       -0.79366103224448       -0.71569403297712
H            4.85697923786043        1.13832760170369       -0.74595307354450
H            4.61726515697239        3.44363167694266       -0.40429586452255
H            3.82665686087631       -0.04803714297267        3.11410132666887
H            2.99646373304743        0.65892485842745        5.31103785989459
H            2.57111438798438        2.99910788661052        5.81244050990877
H            3.69479103313426        5.82076909615472        4.06512144940221
H            1.98290738874631        5.54097740472956        3.71923170979566
H            2.61240713518471        5.24350272796488        5.33221587662263
H            3.95941290496097        5.65027835583581        0.20906405431461
H            2.93083910993958        5.87027650036555        1.62863451172914
H            6.33471201901390        4.49762644100891        2.12928393050558
H            8.13564267036715        5.73775445915085        3.22105869111643
H            7.88410628097792        8.14548263595734        3.69420210134132
H            5.79888198952564        9.30742701458782        3.06286834819548
H            3.97529343681134        8.06434764507015        1.98188277848314
H            5.96961242476661       -0.87770139807370        0.11921412027015
H            6.63828571436125        0.56592410979701        0.87380206197890
H            5.53096840692152       -0.46803493802174        1.77613229280647
