43
 energy: -49.251385594592 gnorm: 0.000158300362 xtb: 6.7.1 (edcfbbe)
C            1.00989901632652       -0.05926682701153        0.84445362776665
C            0.78450671158236        1.34278730398005        1.39779140042897
C            1.12853399722538        2.44853009600731        0.39834882308424
C            0.28408799084445        2.44812685518193       -0.87764675307377
C           -1.22030274582521        2.62618414873495       -0.65850926756234
C           -1.62071450930519        3.90643750530730        0.08025113604541
C           -1.12728802865844        5.20300728059287       -0.56312445070552
C           -1.67038913654040        5.45067595527606       -1.97606918433357
N           -3.09447120625577        5.69434614487599       -1.96131120885505
C           -4.07246373587248        4.75078082806348       -2.03361899688070
C           -5.26802673004446        5.39555456563031       -1.92883049783754
N           -5.00180371440445        6.72355884934494       -1.79602235364540
C           -3.68104013997425        6.87884062642828       -1.80959280030475
C           -5.98460147314160        7.76361886725256       -1.59836739335549
C           -6.41659468658318        7.84519740972522       -0.12917272926725
C           -5.27548266401941        8.25611081382442        0.79163940351659
H            0.31544415421796       -0.28534896789005        0.03902891500299
H            0.86630966622891       -0.79857909118288        1.62827955034978
H            2.02383381783318       -0.15885480876266        0.46416865470553
H           -0.25115277883690        1.44280059773159        1.72880521148143
H            1.41811220466456        1.47831317302619        2.27681980447868
H            1.03991813792576        3.41545730128935        0.89896450456765
H            2.17417677030232        2.33381704915326        0.10459541469266
H            0.65621961718887        3.23500896792363       -1.53860176429081
H            0.43545878111071        1.50260324813359       -1.39969061542607
H           -1.71252915091777        2.58307911875538       -1.63429372196208
H           -1.59648262932524        1.78039017889214       -0.08218431106934
H           -2.71031088107671        3.93259476120361        0.17667696006975
H           -1.21588755177494        3.86618770337837        1.09144053314567
H           -1.40025656347975        6.04683150202439        0.07499666689529
H           -0.04062514706340        5.18150763293935       -0.62993111250445
H           -1.17880287636762        6.32341324675571       -2.41038895027976
H           -1.47473811076479        4.58462059865213       -2.60906651132786
H           -3.86222258537582        3.70895611114966       -2.16286022426820
H           -6.26531386046945        5.00620577977641       -1.94726392982715
H           -3.16764678122517        7.81720518516229       -1.72891736910629
H           -5.54948064653058        8.71460073662255       -1.91150030322152
H           -6.84796088892226        7.54375530659583       -2.22953017800868
H           -7.21845246297033        8.58007329897230       -0.06345312030886
H           -6.82039587555963        6.88159222387961        0.18591227286204
H           -4.86364182170109        9.21671917240265        0.49153098365614
H           -5.64132935436597        8.35187013806078        1.80940921539754
H           -4.47747212810556        7.51559941212481        0.79409466928844
