36
 energy: -49.221054782616 gnorm: 0.000418501463 xtb: 6.7.1 (edcfbbe)
C            1.18608883942265       -0.00394036436698        0.63460429641003
C            0.60934388458116        1.24725775308007        1.28696849740911
C            0.93981809661591        2.53138481119550        0.52528671582908
C            0.27778647677987        2.62664965811563       -0.85547597610408
N           -1.15974886154953        2.71069083336059       -0.74823582923648
C           -2.02471429454479        1.66148594022169       -0.71984246228147
C           -3.27681118830493        2.16738815167483       -0.54431637631645
N           -3.15962579060568        3.52578003522338       -0.46573631903921
C           -1.86621950817006        3.82887784439609       -0.58711649664541
C           -4.22319639144458        4.44320978188060       -0.31457683122327
C           -4.16915292494009        5.68538259200630       -0.94799745875625
C           -5.21121726473993        6.56868947667695       -0.81107712460038
C           -6.33644820107637        6.24157762553453       -0.03771909883862
C           -6.37698657332021        4.99659320738123        0.59734293829863
C           -5.32998081711712        4.10831985766766        0.45616436404752
O           -7.29296894357292        7.17089678801434        0.02273006212287
C           -8.47502056560354        6.91821128222100        0.75760158790347
H            0.75106652511480       -0.19546810661915       -0.34375045859389
H            0.99141213722266       -0.87091460328818        1.25961988087254
H            2.26228710964451        0.09193362190781        0.51662774244491
H           -0.47289365503438        1.14442106590453        1.40095424693682
H            1.02898262713286        1.33937901869353        2.28939615579476
H            0.63942321236470        3.39569754573115        1.12147369051027
H            2.01815155521938        2.58868057137031        0.37565765335581
H            0.63732899240314        3.51836716860597       -1.37277955777476
H            0.52782545922726        1.74938293365297       -1.45321603760524
H           -1.70566494812546        0.64620492681216       -0.83691684573081
H           -4.22036666061859        1.66509272666139       -0.49524333237017
H           -1.45505592050452        4.81800171507956       -0.55060286102453
H           -3.32664493383608        5.94393110803037       -1.57026485194934
H           -5.19295179791129        7.52825871123549       -1.30093540788731
H           -7.21977418744055        4.71527110098657        1.20672805075432
H           -5.36849309815782        3.16041218862143        0.97035732069761
H           -9.01163524627611        6.05193204308614        0.36181233697282
H           -8.25972452524500        6.76874138018399        1.81889569217442
H           -9.08826861758785        7.80858960905958        0.63614209344320
