44
 energy: -65.041177929370 gnorm: 0.000769656840 xtb: 6.7.1 (edcfbbe)
C            0.52819596455365       -0.80844665236284       -0.38437988026866
C            0.32643962881830        0.30385813866244       -1.39875389915630
O            1.06321322964185        0.03620479628584       -2.60785435632576
C            2.32682652279292        0.43967186515236       -2.65843577004659
O            2.91830574037303        1.04685288311326       -1.81974472586894
C            2.95817760693838        0.01767669287659       -4.00569946837585
N            2.48023492012495       -1.27554818744642       -4.40497560142350
C            1.35127022407665       -1.53710233645552       -5.07767165713811
C            0.49020429972698       -0.51543523423756       -5.70023851507912
N            1.12676381142756       -2.85461755679271       -5.09737251719376
C            2.13828839440099       -3.48346356849451       -4.39539736453927
C            3.00282411723357       -2.47113579428990       -3.94515187241778
C            4.12890198058076       -2.76105896367428       -3.18686623988771
C            4.36397022885964       -4.09133384366318       -2.90297008896024
C            3.50931410369519       -5.09984695541213       -3.35402711514229
C            2.38466640299650       -4.81907760917874       -4.10331711469833
C           -0.07224298522383       -3.49275725746042       -5.60208764286800
C           -1.26839510491459       -3.08958521402905       -4.76752415295794
C           -2.41937476273926       -2.59559468868306       -5.36374396162902
C           -3.50115075215720       -2.22070934163847       -4.58481931899829
C           -3.43460812223521       -2.32699003744237       -3.20660015751709
C           -2.28743681951419       -2.81965785338821       -2.60657009199697
C           -1.20882823647006       -3.20228634368909       -3.38344998726388
H            0.23640610666111       -1.76697677809436       -0.80724405530052
H           -0.08230430311696       -0.60864547756691        0.49057858431188
H            1.57001487837309       -0.85569564485105       -0.07646416527651
H           -0.71573057276939        0.36766101896023       -1.71661590248603
H            0.65667032939700        1.26295855117428       -0.99176935119402
H            2.70022673358021        0.77245097133094       -4.75210371274844
H            4.04292824406139       -0.00181167310429       -3.88781082850780
H           -0.11326919196594       -0.02569742816863       -4.93493058155291
H            1.08998008346887        0.24618060679602       -6.19577235385862
H           -0.18121936820978       -0.96073048472965       -6.42736438700105
H            4.78933517455497       -1.98859338532922       -2.82881720356340
H            5.22788474389117       -4.36061852683748       -2.31690132867808
H            3.73436789368836       -6.12498934883106       -3.10726928588764
H            1.73292180740615       -5.60847251283931       -4.44051432524124
H           -0.22311801758537       -3.22295635511667       -6.65063764560776
H            0.08180765702943       -4.57247588988495       -5.55028077644336
H           -2.47985963352899       -2.51655283692948       -6.43986525484821
H           -4.39546397811087       -1.84537671975867       -5.05687076434919
H           -4.27699046207601       -2.03301331322850       -2.60037341954381
H           -2.23693267204612       -2.91426009246897       -1.53218218416703
H           -0.31948584569420       -3.59916161826662       -2.91262955830412
