36
 energy: -97.990049040917 gnorm: 0.000921445609 xtb: 6.7.1 (edcfbbe)
C           -0.07185383172015       -0.14349232794390       -0.03560418770494
N            0.14871188170043        1.14517582141489        0.55043949719090
N            0.27063976213675        1.27959162693787        1.86528329867070
C            0.49073659801137        2.53577802154619        2.08647087550588
N            0.50806272115790        3.23066777390805        0.91398540603661
C            0.28782221320466        2.31769948729879       -0.04346796321215
C            0.77947392459817        4.64198192963797        0.74689557684344
C            2.24483205117913        4.98343131836939        1.04497898278725
C            3.27995515271808        4.26835617332993        0.17081411854500
C            3.24962231947264        4.51695254256163       -1.37451508306858
C            3.28381634995340        5.99119020912315       -1.88480209788158
C            4.46542251557569        6.92079510517732       -1.46600184992828
C            5.91142594423082        6.52370414467648       -1.89819993182993
C            6.14789926799255        6.43711714565638       -3.44448848584478
F            5.58389086692192        7.45517388705220       -4.07918296625485
F            7.44058981460101        6.43454751714644       -3.70065508309533
F            5.61870190155002        5.30922551974359       -3.91393644945216
F            6.74455387158224        7.43360080921587       -1.38122019192536
F            6.22431986228709        5.33414925249592       -1.35417916407513
F            4.18834706088217        8.14137689790699       -1.93980659186978
F            4.43183999284786        7.01611036072723       -0.11830628911663
F            3.17926482629921        5.97350756763737       -3.21729299223840
F            2.15235435170604        6.57562612993819       -1.41470385145390
F            4.21714743741500        3.80460859855529       -1.95541310593160
F            2.07289304943283        3.99972973540780       -1.82754193633146
F            4.51117689769709        4.54120588491081        0.62572173375290
F            3.12029842688734        2.91849454106108        0.31019792772106
H           -0.58542200765544       -0.04506391350980       -0.98921846169750
H           -0.66570498255703       -0.74084027248722        0.65495583464575
H            0.88335853873232       -0.64932098478237       -0.19053094041413
H            0.62526667932112        2.96246376916933        3.06022911431196
H            0.23918086673589        2.50936499433690       -1.09827847694251
H            0.49858871728818        4.93567739487131       -0.26584443514108
H            0.15735096259136        5.20182124292887        1.45094075800379
H            2.38785976353055        6.06099685210489        0.96379576097938
H            2.49784623168761        4.69738524387503        2.07055165041772
