34
 energy: -54.938705757544 gnorm: 0.000357065232 xtb: 6.7.1 (edcfbbe)
O            2.14501324751863       -1.41865313446234       -1.55715584658054
C            3.09870907248858       -0.94243124409023       -0.98122325790331
C            3.46513727883349       -1.23734192069316        0.40015337421490
C            4.60064476659299       -0.71263941502127        1.02743989095347
C            4.88175818858556       -1.05322784680576        2.33584845009122
C            4.04413693844793       -1.91079611422966        3.03574804918072
C            2.91594596406913       -2.43582886173396        2.42321458689398
C            2.62782113999299       -2.10382157236975        1.11566099096005
C            4.01738998106682        0.03116612486458       -1.76285414056057
N            3.35058123367359        0.38060269720800       -2.98281294098768
C            2.95625915790539       -0.50846988591024       -3.87689407738499
N            2.18163661398247        0.08705124050112       -4.79686986116768
C            2.05114022031506        1.40967784676817       -4.45577875362140
C            2.76904093302620        1.59659537403420       -3.28406479131746
C            2.98267949590855        2.81114687682300       -2.46368107773994
O            3.93506433394199        2.92557618693585       -1.72250916454400
N            2.06040629250408        3.78699298439521       -2.64646495692151
N            1.30556573505784        2.28176778437329       -5.17764743253298
C            1.56425598695745       -0.55324105991772       -5.92913671799578
H            5.26588415401285       -0.04364364022802        0.50567500831292
H            5.75813002590718       -0.64684831670282        2.81643939600534
H            4.27280412214256       -2.16904883897077        4.05824421059426
H            2.26500131264034       -3.10353384399661        2.96574068326689
H            1.75592651743723       -2.50327233960253        0.62009826135894
H            4.22237736876040        0.94568211664697       -1.20280534477716
H            4.95787130889406       -0.48264453699124       -1.97776996832015
H            3.22457164777815       -1.54584603344633       -3.88582630323821
H            1.13611079951236        3.58159534066358       -2.98497656968393
H            2.16011996716723        4.60221991846067       -2.05896758055308
H            1.03490801749804        2.00314090407236       -6.10772127789196
H            1.52697674066489        3.26014796254932       -5.07562620663128
H            1.92930315125879       -0.11949565210603       -6.86219147387202
H            1.80924068155848       -1.61234639486818       -5.91725554588551
H            0.47991760389404       -0.44473270612961       -5.87879961171091
