65
 energy: -73.410666556852 gnorm: 0.000516073254 xtb: 6.7.1 (edcfbbe)
C            1.37746687912750       -0.06274602239230        0.28691542434782
C            0.93780357194231       -1.28422566057668       -0.51142997410313
C            1.08363771482041       -2.59584236729974        0.26175988186461
C            0.25463534771806       -2.68719712033298        1.54429214363460
C           -1.25726867028010       -2.50680678279613        1.34480720631167
C           -1.83024668010953       -3.51206257580136        0.39798978553630
C           -2.57506723583584       -4.54253829213487        0.76026538679101
C           -3.13684173610935       -5.56180413527071       -0.18761784055409
C           -2.60505782696479       -6.92493787012864        0.13368322268225
C           -3.34934661359939       -7.95383685266407        0.50171450840816
C           -2.81290912825247       -9.31211414638962        0.83274636227256
C           -2.84677319848301       -9.61036367820884        2.33841832123330
C           -4.23015656400476       -9.49107251378443        2.98098448266103
C           -5.31580875292379      -10.36319758945781        2.34767849538336
C           -5.01869792353802      -11.86410997030007        2.33742864081078
C           -4.77977804110019      -12.48848103784645        3.71452803814636
C           -5.93976049274229      -12.33707218450882        4.69990615825331
C           -7.21645331775317      -13.07310952331651        4.27780391474998
N           -7.05668023784615      -14.50551428787025        4.17888386736547
C           -6.55554931422795      -15.18088279285804        3.11946326857101
C           -6.17209711835631      -16.42336022587696        3.43478363408367
N           -6.34330783664511      -16.62664136256969        4.88819858129471
C           -6.93673560827810      -15.33459739194850        5.36193429554698
C           -5.07258897003002      -16.97656644170250        5.55476486216573
H            0.72601440028753        0.10380405213274        1.14103854413817
H            1.34691793340764        0.82657683018516       -0.33864415267729
H            2.39522584233047       -0.19108357653217        0.64946406079642
H           -0.09699331437279       -1.15475273919696       -0.83325008271446
H            1.55051855826297       -1.35451836263234       -1.41377677454409
H            0.81219718298079       -3.42368229763004       -0.39704077860632
H            2.13534048908027       -2.72629081148626        0.53044869555575
H            0.42825063870970       -3.66912443178008        1.99237445161459
H            0.60253065388649       -1.93670442403648        2.25629162347919
H           -1.74521291103774       -2.60280472703533        2.31763321820529
H           -1.45437387287776       -1.50136592345235        0.96781193388488
H           -1.59792561629591       -3.36226821723409       -0.64837763642836
H           -2.81352636826441       -4.70420917257183        1.80429670528295
H           -4.22814535859780       -5.56877419852320       -0.11500803851653
H           -2.85922214162232       -5.29521728912847       -1.21075051802429
H           -1.53006457506719       -7.02922675453330        0.05880809171011
H           -4.42346872533742       -7.83727847304665        0.57207060517062
H           -3.38919472237503      -10.06980273463236        0.29571455854495
H           -1.77639529990606       -9.38262678743083        0.49665369622298
H           -2.44331109438877      -10.61215372872486        2.50569274063387
H           -2.18288147135871       -8.90426575167436        2.84179157163861
H           -4.13886839378298       -9.73112781210502        4.04323546735209
H           -4.55521126878705       -8.45139786070927        2.91729829532614
H           -6.25683617963680      -10.17803932508058        2.87154752467720
H           -5.46517388028585      -10.04830567579472        1.31409681826804
H           -5.84857422392890      -12.37042848254788        1.83739277015921
H           -4.12858300429953      -12.04519963898051        1.73337805699020
H           -4.55083426551193      -13.55044608812447        3.57673465608670
H           -3.89784365681754      -12.02738008734104        4.15971646365520
H           -5.62110416089895      -12.69129276343093        5.68366080925648
H           -6.18875281252685      -11.28263848261140        4.80778635643741
H           -8.01327933165128      -12.87520931187061        4.99947943992006
H           -7.54663133206868      -12.71525645412079        3.30261103183690
H           -6.53074375441035      -14.73222913921656        2.14511178209699
H           -5.79276081145150      -17.22004524402211        2.83451322581101
H           -7.00014097257029      -17.39621041111515        5.05160724223797
H           -6.27935698174184      -14.87390659874827        6.10995894386498
H           -7.92213417797262      -15.50203227194454        5.81332211321084
H           -5.22373132069022      -17.09506449511013        6.62645636986942
H           -4.68852287212294      -17.90925525341132        5.14526744832829
H           -4.34274507285409      -16.18939425874238        5.37211000177274
