60
 energy: -111.215977464151 gnorm: 0.000420115019 xtb: 6.7.1 (edcfbbe)
C            1.17669867190641       -1.65840248835145        1.91156990837713
C            0.18920828097979       -0.49736763227888        1.85970868313842
N            0.54400798158748        0.55561754750647        2.78552509263410
C            1.23403017663466        1.68440017421009        2.45190409135509
C            1.84230839667519        2.03427633182351        1.24490294696395
C            2.18007795609676        1.27651476736864        0.13310397324573
C            2.73713918046530        1.88547623942066       -0.98275832413016
C            3.24265201714323        1.35440540041216       -2.17041281378135
N            3.56889705295597        0.06545148809507       -2.47799101501874
C            3.55709981568500       -1.03503687632528       -1.53984356421026
C            2.25918779077063       -1.83236973311448       -1.61449984251065
C            4.00662097606348        0.01214705003548       -3.78521476332450
C            3.95960485337277        1.33668381027669       -4.28844998567115
N            3.52631190060983        2.13829333988123       -3.25736162139236
C            3.38964948160194        3.58028968375885       -3.28494035026540
C            1.97645655976982        4.00835275939027       -3.66230258944002
C            4.29931343054461        1.60453499840401       -5.61529791217366
Br           4.14937012115018        3.29863729926556       -6.45173693131423
C            4.74064590474377        0.54822300687326       -6.41275252123299
C            4.81909979314043       -0.75338794076256       -5.90625774918092
C            4.43613632043824       -1.03908981089172       -4.59519923916636
Br           4.52969058861463       -2.85581869048748       -4.06332760408191
Cl           5.37425732317493       -2.01145893729566       -6.93105070085773
Cl           5.18339602208848        0.83288691467138       -8.04458738839563
N            1.24370625858827        2.51731928800147        3.53910298073968
C            0.63430336453585        1.88192892260528        4.59645100955955
C            0.16520695224825        0.63565577082589        4.10983041951000
C           -0.52875156293113       -0.23646081173527        4.94868728745883
Br          -1.21309725212753       -1.92732558950742        4.43464305828951
C           -0.73837795720304        0.14375850432017        6.27480341168929
Cl          -1.59512355060568       -0.89306029553220        7.33913600793326
C           -0.24243286827461        1.35677216571968        6.76447374745517
C            0.45548580697338        2.23473305153669        5.93474793441339
Br           1.14927398915061        3.80267545672749        6.74248313938014
Cl          -0.49276665921954        1.75208801248526        8.41378947473693
C            1.80920919584131        3.85108259086394        3.54133596182511
C            3.30277452646182        3.83274009300624        3.84414057252323
H            0.88460951888901       -2.41254922693628        1.18789673081543
H            1.17201966645153       -2.11859302508019        2.89493633756680
H            2.19047479664237       -1.32794728028741        1.69950074556885
H            0.14201241239884       -0.05517519284972        0.86344673000025
H           -0.81115939686881       -0.85260242844729        2.10483530084026
H            2.15439346597897        3.06624681948126        1.18981220552254
H            2.01306681009136        0.21640617519764        0.13723893388955
H            2.74764991999397        2.96415651404310       -0.94060648958175
H            4.40326917087833       -1.68548851289883       -1.75771874382535
H            3.71628152908606       -0.61866302354150       -0.54401286071077
H            2.14400607969793       -2.27942599673716       -2.59700961987472
H            2.28474493739640       -2.63350578800018       -0.88285910025452
H            1.39378541981523       -1.20131872284967       -1.42806166582876
H            3.66074624761807        3.97181315981649       -2.30275731002321
H            4.10905952816062        3.98153777271172       -3.99505878759540
H            1.25033891535636        3.61346156502745       -2.95596262152723
H            1.91444337577175        5.09196545956041       -3.66142495902560
H            1.72359367069948        3.65480403249658       -4.65773346548376
H            1.61890908646806        4.30767774971851        2.56821729889772
H            1.28073852076457        4.44902190435980        4.28018668847528
H            3.84042658308242        3.23935960155053        3.10863665195489
H            3.68774522483473        4.84739926083745        3.82666583531192
H            3.48688367704393        3.41674332171008        4.83042737978863
