64
 energy: -88.284210859303 gnorm: 0.000211408288 xtb: 6.7.1 (edcfbbe)
O            2.34191281180629       -0.57995486271830       -1.66247193380565
C            2.94043502665856       -1.11983879134357       -0.77147008982533
C            2.59503413541065       -2.37757127582646       -0.07613504851787
C            2.86450816030984       -3.59916154548493       -0.69703620873024
C            3.47810112586031       -3.66394587570260       -2.06277476993547
C            2.57472774469495       -4.77725914026644       -0.00507834790394
C            2.85703896513713       -6.11032945743572       -0.62182051983453
C            2.02274159294408       -4.69706823024388        1.26380320536231
C            1.73462722603205       -3.48581014807762        1.87506990821591
C            2.02527603556664       -2.30209195059553        1.19724609634119
C            1.68910762934460       -0.97540499180678        1.81490524906084
C            1.11801224210398       -3.45539430014329        3.23783560593212
C            4.27663694345148       -0.49737427399592       -0.26660042459827
N            4.36560964105750        0.85167286241120       -0.73431071226931
C            4.31092779793273        1.98988885825693        0.01572388854698
C            4.20846624795173        3.03756887254284       -0.84511697637916
N            4.17003994192295        2.52349260019262       -2.10794536025470
C            4.27282467816911        1.19789428670491       -2.01789409668413
C            4.24384489392148        3.24635731354474       -3.34070684227806
C            5.57081637172500        2.88214410385223       -4.06928054452758
O            6.20754154241282        1.93444712567887       -3.69611727834111
C            5.85531520279521        3.77841159803714       -5.21104721040092
C            6.43724888541167        5.02259947683689       -4.95955802062118
C            6.84192280251476        5.41742529811357       -3.56893909870188
C            6.66604132610551        5.88634015475876       -6.03080545547450
C            7.29410136856930        7.22634132140627       -5.81177668650680
C            6.30234684921434        5.48348664208634       -7.30708438969934
C            5.73371790193921        4.24540092501709       -7.56269352104144
C            5.50903680949234        3.36778118764666       -6.50003209508020
C            4.88522910852203        2.02795001450824       -6.75104541025580
C            5.36684119762651        3.85775693650909       -8.96010780672924
H            4.47964241328972       -4.09179604702302       -2.01053463866424
H            2.88328915073898       -4.30705296190673       -2.70852172601788
H            3.54021817298431       -2.68494212761705       -2.52904790168057
H            3.91136701448375       -6.20183651194866       -0.87904189972297
H            2.59690422342074       -6.91174245475556        0.06340919623040
H            2.28056582305695       -6.23963422620375       -1.53688773771306
H            1.80064827491891       -5.61194076614681        1.79313187011118
H            0.65829601701073       -0.98060486077714        2.16414088491394
H            2.32196673554262       -0.77959004546072        2.68153743406292
H            1.79400022498923       -0.15923292847142        1.10335074593904
H            0.11912373226202       -3.02223905853625        3.19596348965948
H            1.03701100770375       -4.45987732222050        3.64248310316175
H            1.71322939452904       -2.85237985487144        3.92157400911413
H            4.33519731152874       -0.53351162778185        0.82051037413237
H            5.08267583967497       -1.10917016032941       -0.68371577187960
H            4.35768414068476        1.97830413673680        1.08527609399681
H            4.15143811542708        4.08841696392395       -0.64823264573778
H            4.28180430607646        0.51885921020257       -2.84590559837534
H            3.42801253486202        2.95857851268939       -4.01107137239935
H            4.18727345983443        4.31952521838944       -3.16089089841998
H            7.87497127283453        5.75981532249925       -3.56612491185920
H            6.22750027810253        6.24285314964922       -3.20706639320250
H            6.76594627522413        4.58429888454081       -2.87367070401711
H            8.31035231698645        7.11548842312219       -5.43504544280518
H            7.33417135917023        7.78574748493695       -6.74172030173411
H            6.73077807538360        7.80565558668525       -5.08193245640378
H            6.47499508112745        6.15695124340131       -8.13356355747456
H            3.84925713807379        2.14323647704874       -7.07166806289671
H            5.41685742376864        1.51222888663482       -7.54815243001424
H            4.90950702133745        1.39615013891708       -5.86768357442250
H            4.31653101400176        3.57733718214340       -9.02160195251547
H            5.54675622591081        4.68116874424925       -9.64504799326732
H            5.95809641843232        3.00348065421608       -9.28801433511045
