35
 energy: -36.181800074894 gnorm: 0.000534746756 xtb: 6.7.1 (edcfbbe)
C            2.16769698910193        0.15725596589783       -0.22479924191078
C            0.96818757446012        0.91213111230431       -0.78605408793083
C            0.67339872813549        0.56235347387347       -2.25001779353399
C            0.18874698548419       -0.87795200900723       -2.47272930744565
N           -1.27163162797863       -1.06117297743182       -2.72364480111017
C           -1.73039964502115       -0.26654853357209       -3.91479743229053
C           -0.83257309476426       -0.32675352547805       -5.14114301217373
C           -1.57355115140098       -2.50660182166397       -3.01673180640232
C           -0.72414478072211       -3.56879504012918       -2.33067283884327
C           -2.08543948875177       -0.57297956183571       -1.56502750542474
C           -1.98553466740353       -1.36895616711175       -0.27406728272046
H            1.99787573681687       -0.91688378126380       -0.18655841248277
H            2.37587586814554        0.49522813341767        0.78628123328405
H            3.05128088008812        0.34035303362914       -0.83089796714769
H            0.09610949961592        0.72945427922840       -0.15636660890792
H            1.18195184441163        1.98081995367091       -0.73817607150342
H           -0.03341507178824        1.28711639004720       -2.65194625147154
H            1.60265430743587        0.69254820346692       -2.80761482493061
H            0.70628599347258       -1.31430513399667       -3.32618902912483
H            0.44304768727093       -1.46634759677464       -1.59359827695729
H           -2.72567830196610       -0.63409572991917       -4.17416994779975
H           -1.83555454326266        0.77581175678559       -3.61172211918409
H           -0.63353410263357       -1.34207816689492       -5.47307106339734
H           -1.34731795498857        0.18305629610982       -5.95194443456801
H            0.11151939207315        0.18465919974311       -4.98183022015623
H           -2.62455254102468       -2.66460307661837       -2.76825421380239
H           -1.46137622593850       -2.65125808393908       -4.09173553744372
H           -0.71923831527266       -3.48887589272343       -1.24948744094052
H           -1.15551438414905       -4.53486725987439       -2.58388621062842
H            0.30034614520234       -3.56994085180394       -2.69073798430027
H           -1.78139748862119        0.45647269275123       -1.37235126270645
H           -3.12987738907790       -0.56075097522653       -1.88561836372640
H           -0.96619514772333       -1.44479266152764        0.09283727951553
H           -2.56269550263497       -0.84008172411515        0.48107736438857
H           -2.41227620658480       -2.36253992002163       -0.36774452622280
