29
 energy: -49.912250891309 gnorm: 0.000607746022 xtb: 6.7.1 (edcfbbe)
Cl          -1.33922859786078       -1.95727713705332        2.11472268678157
C           -0.18330424589243       -1.02183275239587        1.26801703167043
C           -0.39160831355063       -0.70247696690589       -0.07173405997721
C            0.54317930820978        0.05353700127537       -0.74092791125694
C            1.70624171044577        0.50079699843571       -0.09602028064604
C            1.90175558433285        0.16949733820458        1.25079550783335
C            0.96466585658950       -0.58162995385506        1.92529476511424
C            2.63970246081285        1.29924021096473       -0.87790862743323
O            2.44228612729648        1.68241666633336       -2.00911729114489
C            3.98273460517855        1.69238269917253       -0.19735434581421
N            4.82457366587921        2.30905213955068       -1.18376626863581
C            5.82716478844442        1.68762023903443       -1.87000130624998
C            6.24447208506598        2.53287685188769       -2.84828482029820
N            5.46192765297580        3.64364002510147       -2.74957461973453
C            4.59242737394219        3.50498883604387       -1.74411457349037
C            3.60756748217395        4.52046817766897       -1.33595907024119
O            5.55709217753285        4.77702826737828       -3.49087086247046
H           -1.28122992170904       -1.04640129034022       -0.57423108382469
H            0.39952157860631        0.31260199325441       -1.77889954662555
H            2.77720988783233        0.50282182670107        1.78519310297185
H            1.11194568674362       -0.83281314947142        2.96344634159684
H            3.77635672430877        2.39291285552941        0.61541767350871
H            4.48230292640978        0.80781960997821        0.19748885366417
H            6.17392934016810        0.70594472630075       -1.61983881917478
H            7.01220434761208        2.42100313450554       -3.58655708854567
H            2.59781739222893        4.17904189699502       -1.56555940359079
H            3.66643341850373        4.71427326841881       -0.26603798740556
H            3.79539194786730        5.44471240396305       -1.87642773602070
H            5.85729694986428        4.56720408330520       -4.39070026054465
