45
 energy: -56.876341682975 gnorm: 0.000658752344 xtb: 6.7.1 (edcfbbe)
C            0.89760247399667       -0.51040490506253        0.18840845798773
C            0.80589397842028        0.63489952192250        1.18921692294146
C            1.14268030255662        1.99648256214227        0.57947944210661
C            0.18986142968484        2.46289071122038       -0.52359376271424
C           -1.27350026115247        2.60459522193875       -0.09870516597952
C           -1.51641047565318        3.55545776970428        1.07522047971823
C           -1.01218624365488        4.98498715820196        0.86173035740557
C           -1.61197988746998        5.70008902055215       -0.35171059602513
C           -3.12982022451230        5.86717988125356       -0.31613373618254
C           -3.63623068400280        6.73485808669751        0.84486138704929
N           -3.15269290802068        8.08248327509111        0.70871590948209
N           -3.85630121884857        9.00012377364937        0.05462090230503
C           -3.12768089112234       10.06989504627657        0.02421592550251
N           -1.93922806853157        9.85201104813478        0.65289041442173
C           -1.98242320743910        8.57752134621563        1.07238766759758
C           -0.81966301989931       10.77515697581695        0.80710959484504
F           -0.11840299321748       10.33572799589526        1.88447758069117
C            0.05616246800584       10.79045707704841       -0.43201848201422
H            0.14524770844332       -0.41628124332035       -0.59056945749588
H            0.74290969593428       -1.46136582373222        0.69207390898914
H            1.87912091547920       -0.52825970866583       -0.27998276795129
H           -0.19367651034667        0.65730671931744        1.62718820101087
H            1.51077820577383        0.44725588527011        2.00247559342270
H            1.16992292278773        2.74112756252968        1.37851692561952
H            2.14774127844336        1.94518659598938        0.15396198461002
H            0.55376226914752        3.41857718557041       -0.90962265616215
H            0.23183826691661        1.75339185856222       -1.35105865462380
H           -1.85377668515327        2.93249774271320       -0.96468204045454
H           -1.65768823858205        1.62351083318222        0.18291388368699
H           -2.58702633544245        3.57036875055756        1.29365335934323
H           -1.01987794048883        3.15709696197587        1.96083552967095
H           -1.20836785660679        5.55514834737125        1.77484010581932
H            0.07037967840312        4.95889053390624        0.73261291924889
H           -1.13284103685702        6.67964347645096       -0.46211660019319
H           -1.36266874208281        5.13244587855890       -1.24780240775952
H           -3.47013563814712        6.30652120109817       -1.25574673045658
H           -3.60091497145295        4.89054432110105       -0.21934095642084
H           -4.72571712790502        6.78341082074275        0.82205901714319
H           -3.30237223542957        6.33068317849872        1.80095238346259
H           -3.42477619962329       10.99398089967221       -0.42857481603497
H           -1.21476380572699        8.08395241721368        1.63712314137828
H           -1.21655804049976       11.76995457636296        1.05310062879972
H           -0.50602381852677       11.14364069894624       -1.29148323603049
H            0.89476531305071       11.46057178498342       -0.26079825754331
H            0.44767835934997        9.79564697844580       -0.63389230021840
