56
 energy: -86.117540465524 gnorm: 0.000723345578 xtb: 6.7.1 (edcfbbe)
C           -0.45504271756065       -0.84022873155151       -1.13790489904412
C           -0.51604961177015       -2.34794713670759       -0.96393508400278
O            0.65007725822768       -2.83976170366966       -0.27335064683173
C            1.72187592540820       -3.10332413306075       -1.00872881094626
O            1.82019462378087       -2.99453430968608       -2.19323899137003
C            2.88700204884000       -3.59212493959757       -0.12173654063392
N            2.49269769442804       -3.80278136417793        1.24276353001053
C            2.36900352459220       -2.85857153570261        2.18594393341349
C            2.73595409823531       -1.43867393518188        2.01648833438200
C            4.18020957287262       -1.16028600312773        2.41837661958052
C            5.15331135825623       -2.14996581891135        2.39898251315086
C            6.45831247668558       -1.85239583345320        2.75360488358748
C            6.80102285689635       -0.56574827061681        3.12768714029780
C            5.83322502865658        0.42465072557185        3.14658655789620
C            4.52847489482566        0.12947922057568        2.79535273308726
N            1.91376441773972       -3.40482577275316        3.31972787523176
C            1.69612754043399       -4.75385076172888        3.09957806724104
C            2.06104311793035       -5.00642381875341        1.76642682083617
C            1.95314269787635       -6.27595722463269        1.21473476217724
C            1.47312594246946       -7.27650906234481        2.03553241443514
C            1.11030259493403       -7.02703520303732        3.36074879951981
C            1.21261555436901       -5.76778117706113        3.91675884739575
C            1.62214707900658       -2.69908240119673        4.54238347053090
C            2.77048119056269       -1.79808335166347        5.06328522447269
O            2.55569258046819       -0.61574217380512        5.17714077585227
C            4.04681022205189       -2.42879785762373        5.41280910243513
C            4.29399269781313       -3.80045614303750        5.31202699583355
C            5.53518168252080       -4.30465382569380        5.64753468440610
C            6.53968751380537       -3.45880558709211        6.09465558355793
C            6.30002882341248       -2.09857197203649        6.21367327673778
C            5.06485300263552       -1.58671111907101        5.87498126869694
H           -0.35850639886928       -0.34543462745507       -0.17456768740798
H           -1.36868613625750       -0.50020592519437       -1.61507641494918
H            0.38688590677549       -0.56585566653649       -1.76891741053268
H           -1.35599360163230       -2.64470103835707       -0.33414785504023
H           -0.58082423327218       -2.84368665891845       -1.93579976840088
H            3.25785003661984       -4.52849401077344       -0.54412576100320
H            3.69454414250177       -2.85701929606108       -0.18315138808361
H            2.59094643603102       -1.14229720637977        0.97419416725922
H            2.08315705307732       -0.81422778291564        2.63034297833745
H            4.90875303855444       -3.16475410892326        2.11655128543287
H            7.20461749527770       -2.63144951710737        2.73567461478124
H            7.81840591068512       -0.33538638448545        3.40162124582553
H            6.09201527000791        1.43077402170766        3.43680272186152
H            3.77613331203813        0.90252626058663        2.82041984861647
H            2.22138448661984       -6.47813162304893        0.19082986716712
H            1.37101375146789       -8.27591449949826        1.64429863277807
H            0.73655289398777       -7.83924947516712        3.96315921260946
H            0.92085174255614       -5.59066926408413        4.93946899653943
H            0.75484859335581       -2.04552752427698        4.39240426096747
H            1.37381753891178       -3.42755506534301        5.31591976742064
H            3.52765347196901       -4.48654823844436        4.98638211711437
H            5.72010797311813       -5.36526517371742        5.56867681190940
H            7.50449809594811       -3.86358113900202        6.35855878541059
H            7.07564670880550       -1.44097499923582        6.57302598345806
H            4.85650082127211       -0.53152983662071        5.96024574600925
