51
 energy: -57.415405774639 gnorm: 0.000337827244 xtb: 6.7.1 (edcfbbe)
C            1.05545360486631        0.63742324427196       -0.56948501146952
C            1.14851331166552       -0.48386078789141       -1.59730150510703
C            1.40801263440492       -1.85647215479241       -0.97403362343462
C            0.32781093046099       -2.34110351252163       -0.00463474291612
C           -1.07608702359434       -2.45090482222960       -0.60238521772991
C           -1.19992062836667       -3.40704180380734       -1.79037121554657
C           -0.81989529566171       -4.85950643423846       -1.49420273225200
C           -1.61892827402329       -5.51949850284710       -0.36853571478625
C           -3.13681044941816       -5.52248743288831       -0.56780130302758
C           -3.61749868460499       -6.20786597788038       -1.84967745236608
C           -3.26013759609529       -7.68940743492481       -1.96024528984161
C           -3.95766741535835       -8.58232693019543       -0.92260619843210
N           -5.38990989153502       -8.61286829316161       -1.15544392701909
C           -5.89301391465912       -9.47137669929032       -2.04727444635003
C           -7.24106545432321       -9.47155866507895       -2.34413484325434
C           -8.07652359687071       -8.56194782970398       -1.71713808109333
C           -7.54591016394461       -7.66068509684734       -0.79082534723343
C           -6.18286808809275       -7.72912532982535       -0.54099410191303
C           -8.40613935044571       -6.66688593640866       -0.09540669516646
H            0.18139397933798        0.51868279358503        0.06608142490912
H            0.97952146888738        1.60021866921896       -1.06950281415274
H            1.94142773108725        0.64941570817146        0.06138829421027
H            0.23318776712814       -0.51061068529686       -2.19142830783166
H            1.97117020302204       -0.26495733611074       -2.28201372892276
H            1.53138354209714       -2.58720710405742       -1.77648824039675
H            2.35360364372707       -1.81552751098748       -0.42784418257452
H            0.63295393667778       -3.31351188899211        0.38877519148227
H            0.28069344885129       -1.65687160917656        0.84433394504621
H           -1.76198589545644       -2.76175389891289        0.18958279220459
H           -1.40103718740475       -1.46235355236134       -0.93103034229158
H           -2.22820420852948       -3.36583471080779       -2.15896606127457
H           -0.56056981898164       -3.05180642040748       -2.59978237245143
H           -0.93194220206027       -5.43954305757216       -2.41370480282526
H            0.23556627884729       -4.90198868545671       -1.22221886420987
H           -1.26022790719635       -6.54442269472936       -0.24381538104766
H           -1.40871274925474       -4.99813327156026        0.56616331638446
H           -3.59125349128445       -5.99157518436614        0.30994177271066
H           -3.49001161563797       -4.49112744845170       -0.59096432393434
H           -4.70133946972955       -6.08022109048301       -1.93946828968776
H           -3.17207429274164       -5.69620423468226       -2.70243835921207
H           -3.51288760134379       -8.04651188481158       -2.96112318657718
H           -2.18613766394280       -7.81266003341727       -1.82802992173252
H           -3.56814807215253       -9.59919786728560       -0.99592548217948
H           -3.76463598195963       -8.20519930194057        0.08190780927728
H           -5.20716253010591      -10.15981778934347       -2.51698533250071
H           -7.62858859714759      -10.17794984774873       -3.06029121350063
H           -9.13280984253458       -8.54716153420533       -1.93729708428956
H           -5.71989511888349       -7.06681276452840        0.17562066362429
H           -8.94735112882621       -6.06378921383011       -0.82247319856820
H           -9.15009111773209       -7.17820985427210        0.51414536414586
H           -7.82395016116428       -6.00983629494420        0.54362836507366
