48
 energy: -67.085099363530 gnorm: 0.000391169213 xtb: 6.7.1 (edcfbbe)
C            2.00701025915911       -0.85768225671682        1.36234691544884
C            0.64874955549779       -0.25249925218392        1.69420377825719
C            0.77302187591356        1.15390176670049        2.27193447803607
C           -0.55416972248985        1.71328552398749        2.78124521382257
O           -1.50974419026873        1.11623586122755        3.16188222760478
O           -0.52011334411987        3.06863149954705        2.69362572987501
C            0.74537781612986        3.48386582511595        2.20063411945699
C            1.24016781927787        2.30110666409631        1.36105636411459
C            0.52756562455560        2.23049260924594       -0.00867101779973
C            0.51946107362570        3.52399245076681       -0.73823589107381
C            1.50593015730611        4.13507789211846       -1.46207762351181
N            1.01272266189461        5.31353136934818       -1.93270509798071
C           -0.24225235909511        5.42587777029365       -1.51718468770212
N           -0.56851536609065        4.36060935186432       -0.78531173034647
C           -1.85333598155964        4.12988921487971       -0.17456846470603
C            1.73700146432991        6.23569871900436       -2.78618079777262
C            2.19825005095097        5.52701347491619       -4.03920807903688
C            3.53819999815520        5.22426478522684       -4.22583085903231
C            3.93755679011454        4.56235209958767       -5.37573781111408
C            3.00494292575071        4.19805980317921       -6.32742067683592
C            1.65445289515947        4.49061270996378       -6.15352352064157
C            1.26494782051995        5.15512980372541       -4.99964525904928
C            0.65985674415503        4.10420647477630       -7.20017657382160
H            2.52966380418735       -0.26989457909552        0.61057664947800
H            1.88077472573743       -1.86556495153631        0.97801748941686
H            2.63066720198644       -0.91039833023405        2.25099635387642
H            0.01421686409068       -0.25180568420203        0.80746341161240
H            0.14765324205735       -0.86657216817121        2.44409820142725
H            1.44223412028548        1.10701512190321        3.14043406549945
H            1.42018784869551        3.66802854204181        3.04437027993568
H            0.61118131990588        4.41897365561629        1.65581417299719
H            2.32012768544290        2.33425219009630        1.22467321126928
H            1.03282588798067        1.48303747444359       -0.62123743457392
H           -0.50161370600227        1.90499823289342        0.14700586192171
H            2.50171388707505        3.80780114450159       -1.67968330736998
H           -0.89465198040783        6.25005008873706       -1.73117342633000
H           -1.74340602755254        3.90531169115584        0.88777376210675
H           -2.46933841160606        5.01937587282990       -0.28404293283693
H           -2.35792194731560        3.29227774858853       -0.65889675177381
H            2.59861812718043        6.62103756093198       -2.23434450153260
H            1.07209384504430        7.06679789197984       -3.03005109261930
H            4.27063950121511        5.51699311240293       -3.48806240046531
H            4.98116898794803        4.33492239154213       -5.52683979875151
H            3.32195855031291        3.68445465060996       -7.22214027931245
H            0.22103617560702        5.39786707145333       -4.85249677590388
H            0.85133146443474        4.66002376157311       -8.11683882141289
H            0.74619835904180        3.04522996481380       -7.43575165808064
H           -0.35702409422707        4.31163338451358       -6.87818501478418
