28
 energy: -33.431394369249 gnorm: 0.000220955398 xtb: 6.7.1 (edcfbbe)
C           -0.14557955239103       -0.51968022803663       -0.16629890878547
C            0.60168219861195       -1.83416007880167        0.01502051866293
C            1.66755417538817       -1.76192552288346        1.11598017412561
N            1.06969538750892       -1.54675798061915        2.41403049142419
C            0.85561633372155       -0.34040734047694        3.00640994718395
C            0.21338268320039       -0.57486989038571        4.18475559687026
N            0.04663585279216       -1.92125082902888        4.29425854016558
C            0.56496653256062       -2.48745209652983        3.20855213274093
C           -0.64798675134679       -2.59781192908019        5.36507901121209
C           -2.16629017311806       -2.55203475474371        5.15294921128016
C           -2.60519721205049       -3.32471263840311        3.91635448594786
H           -0.70451165968567       -0.24851680229354        0.72722164753098
H           -0.85197183524997       -0.60950276274884       -0.98604956795557
H            0.54438557940176        0.28543824797495       -0.40591490267925
H           -0.10313553350253       -2.63618611629048        0.24307915554209
H            1.10890601389152       -2.09256250367403       -0.91426686320569
H            2.23568848548079       -2.69391947269061        1.14579657587399
H            2.35220450037826       -0.93587811389215        0.91527062243683
H            1.17337415728835        0.58270488169270        2.56662799080141
H           -0.12067333293445        0.11082126305532        4.93632416693599
H            0.58816159516686       -3.54163054995146        3.01131538717684
H           -0.30795950323416       -3.63462694000552        5.39787342636342
H           -0.38745087078857       -2.10893389200150        6.30592353492102
H           -2.63448824303740       -2.98513809044372        6.03640296107591
H           -2.49244378316745       -1.51329667273971        5.07804758258734
H           -2.28897992321333       -4.36329359196689        3.97748914913252
H           -3.68806706600413       -3.30864679178855        3.83861870713818
H           -2.20060805566713       -2.88603880324790        3.00581922549119
