59
 energy: -61.486772408532 gnorm: 0.000625119599 xtb: 6.7.1 (edcfbbe)
C           -0.22946582429886        1.30618458388855        1.39163591898261
C           -0.40774635257524        0.31415922652048        0.24894321851871
C            0.40367272454899       -0.97008693031973        0.44116910661167
C           -0.18499461008797       -1.90394254484485        1.50616505831936
C           -1.34097725705383       -2.75867552615954        0.97627861066254
C           -0.98565303589766       -4.00452536206459        0.15530539532985
N           -0.39582669708148       -5.19385433220698        0.86159808791552
C           -0.88826481083060       -5.29349765578572        2.27876335847198
C           -2.40180411712703       -5.46842334616768        2.48249175420562
C           -2.81234303734847       -6.88146933042364        2.91641369480656
C           -2.37742590897651       -7.20555620891356        4.34081162629338
C           -0.85322109072350       -6.44439806791237        0.17191810960419
C           -0.48424829519353       -6.62136711689979       -1.29527904918542
C           -1.10884686587687       -7.90781468818734       -1.85234788658445
C           -2.62834653363893       -7.85674210191431       -1.96172621422292
C            1.12030223818447       -5.18012462260117        0.94993408028303
C            1.97190499433915       -4.25395798601893        0.07415319746655
C            2.17885655063052       -4.61658233282018       -1.39610381289208
C            3.21072758671345       -3.68353245222564       -2.02216648737733
H           -0.58437645757738        0.89956222331365        2.33556036206959
H           -0.78966490364189        2.21425475186296        1.18750253047392
H            0.81891548868071        1.57111829338023        1.50516235675607
H           -1.46706428267559        0.07278037791648        0.13793240324214
H           -0.08301982656603        0.79030632117031       -0.67778191721048
H            0.45885527390172       -1.48897715894029       -0.51944132767013
H            1.41991425687205       -0.69231589092922        0.72718257452786
H            0.59908638406865       -2.53208048170023        1.93140498233688
H           -0.56765060091138       -1.29008577657505        2.32153669192147
H           -2.00623704400046       -3.02396049848896        1.79554142244846
H           -1.92780014898355       -2.13286305613535        0.29978084593801
H           -1.91372327014358       -4.34540096258837       -0.30725896974525
H           -0.30523402686506       -3.72769298823714       -0.64648718116445
H           -0.38013617699959       -6.14936867821717        2.72728338578403
H           -0.54942248201186       -4.39676947140712        2.79648700632748
H           -2.72018475600027       -4.78446618276663        3.27161118503486
H           -2.95677125522009       -5.18954773947339        1.58729292287946
H           -3.90004844022082       -6.94617468491139        2.86478830250765
H           -2.40882927834163       -7.63147339428567        2.23413607629577
H           -2.80241270756682       -6.49105273931833        5.04078160694268
H           -2.72387710996597       -8.19688293138763        4.61762272214004
H           -1.29541634901190       -7.18768909624868        4.45003697554978
H           -0.44985987534918       -7.28951188261092        0.73493500258166
H           -1.93846793609146       -6.47641828040951        0.25136473866086
H           -0.84049366892296       -5.78170520874784       -1.89224142434515
H            0.59495510202564       -6.69541854089371       -1.40908354391672
H           -0.69486840093708       -8.06987001317859       -2.84778748219217
H           -0.81324148430987       -8.75656385861980       -1.23376624356906
H           -2.94567321805150       -6.97233775403977       -2.50966074238761
H           -2.98450989653624       -8.73001682879046       -2.50074322445102
H           -3.10946226653667       -7.85738546159951       -0.98656403232688
H            1.36792063079508       -4.91496456304457        1.97921248815109
H            1.45498795612285       -6.20624408851016        0.78971809414735
H            1.63247810561205       -3.22420858008956        0.14494439183100
H            2.95923998850967       -4.28115002939657        0.54437973420031
H            2.54078582817363       -5.64345460000568       -1.47650221257543
H            1.25108910013864       -4.53518523484400       -1.96413549637453
H            4.16710668415773       -3.77132187235387       -1.51370957149197
H            3.35735851182349       -3.93320196222366       -3.06868616604098
H            2.88345289479037       -2.64848468160524       -1.96039703452979
