12
 energy: -21.741611927704 gnorm: 0.000375335667 xtb: 6.7.1 (edcfbbe)
N            1.14545576597849        0.08604771360077        0.05943419773903
N            0.36962831136093        0.69974197091559        1.00279885870361
N           -0.73611686405813        0.20540532871541        1.60085840142805
N           -1.18237297102827        1.03801190413750        2.38991365008537
N           -0.40293376471666        2.13968749024866        2.37265432624730
C            0.59799138048911        1.95065614204170        1.48973364680814
N            1.58905596672883        2.73543714914080        1.13459300416434
H            0.59030505405306       -0.21054017485959       -0.74172463143685
H            1.62478815518685       -0.73057126937350        0.43664921930573
H           -0.61600439308620        2.93441176250663        2.96068662000003
H            2.23812993576115        2.40499888772543        0.43282000345129
H            1.71841342333081        3.65524309520059        1.52553270350396
