40
 energy: -46.079801806416 gnorm: 0.000572303087 xtb: 6.7.1 (edcfbbe)
C            1.05811019335525       -0.38684638030156        0.18460148842354
C            0.73790223892580        1.10100314919856        0.10637275572839
C            1.22192010228749        1.75501958541268       -1.18874960167027
C            0.59134788985303        1.19948430426358       -2.46774647559105
C           -0.93401190719684        1.29966745817008       -2.53276294469669
C           -1.49527732478916        2.71547061003562       -2.38085037786775
C           -0.96816803493522        3.73154853861217       -3.39732376127237
C           -1.22566426907239        3.37220386230535       -4.86107757588284
C           -2.71149813145955        3.32776503032837       -5.23915149400293
N           -3.32389171746116        4.62925782596235       -5.09995313907645
C           -3.97912716072500        5.09318800060044       -4.00202758504660
C           -4.32862779035927        6.38604956745050       -4.25179752422362
N           -3.87514273366396        6.69308371371002       -5.49835295054388
C           -3.26910320871948        5.61607191197974       -5.99042000065255
C           -4.04648153127709        7.95948417513134       -6.15793632100881
H            0.50448972736311       -0.95044236635568       -0.56225176810209
H            0.79322028101026       -0.77607613451787        1.16413555443417
H            2.12065426595414       -0.55508698471219        0.02610819878738
H           -0.33759095194831        1.24907978351460        0.22344094778889
H            1.22590518488428        1.60949893762421        0.94120275868097
H            1.04054811261946        2.83066159342992       -1.12740792564505
H            2.30275325531320        1.61577498658763       -1.26266776152004
H            1.03061050581193        1.72083437896097       -3.32172571251703
H            0.86206623830184        0.14762088424214       -2.56763976590012
H           -1.26866626860563        0.86895055911827       -3.47995789784582
H           -1.36339091711164        0.68550454225819       -1.74033344692636
H           -2.58593632211213        2.65705071948865       -2.43499842460487
H           -1.25022587814438        3.08693480425276       -1.38535732517860
H           -1.40322380843979        4.71088860725526       -3.17529128007214
H            0.10919513044092        3.82826403335166       -3.26567433391363
H           -0.71814964094685        4.09650724602735       -5.50204654634287
H           -0.80275788996718        2.39176215407409       -5.07389594061971
H           -2.81853174803433        3.00278017113576       -6.27604118418242
H           -3.24261632702947        2.62794146578529       -4.59357820699767
H           -4.15613975403877        4.48898869759824       -3.13566738013141
H           -4.85562712523858        7.08968018110752       -3.64025303802378
H           -2.81228221445953        5.54999323879536       -6.95871299355075
H           -3.67769703080479        8.76402656045395       -5.52154047012750
H           -3.49790935109615        7.96642273911054       -7.09684730421679
H           -5.10339408848888        8.13728784854201       -6.36195324590141
