49
 energy: -80.555235184016 gnorm: 0.000873014258 xtb: 6.7.1 (edcfbbe)
C            3.38589279749967        0.13950444676400       -0.10066838885796
C            2.28232146652670        1.07986561546398        0.37095790876889
C            1.95241595895882        2.12380489535472       -0.69563188697070
C            2.99356548215328        3.23480298895365       -0.82387690568741
O            4.15177204826464        3.20861762295966       -0.55559534537870
O            2.37443410105419        4.36306890831563       -1.26444910395803
C            0.99541559324725        4.10411223881843       -1.47672317101148
C            0.66980749229820        2.95264311068687       -0.52022610016305
C            0.54251549072249        3.43425326946487        0.94331500947315
C           -0.35796780035217        4.60368487220345        1.10648523384841
C           -1.72245240883876        4.66705553646866        1.14258510006217
N           -2.07771721705609        5.97537717087459        1.29504383265108
C           -0.95990204044867        6.69590123652769        1.37194555674549
N            0.09347396279057        5.89379022780302        1.24887031172143
C            1.47038804050421        6.31466398862011        1.29889542054990
C           -3.39336354314052        6.47890338870743        1.56704576325503
C           -3.40750839796784        7.06268665735479        3.00565949845769
O           -2.35708257940290        7.21637042878542        3.57789400336571
C           -4.71706883511583        7.39794999628242        3.58091905973821
C           -4.73836287926867        7.77583680687576        4.92965446289508
C           -5.92768924829267        8.10371121405936        5.54735324918861
C           -7.10105052523770        8.05702138770279        4.80753687497299
C           -7.10152916261482        7.69621515574752        3.46616836250250
C           -5.91070341793602        7.36489173914943        2.85170506443574
N           -8.36752619172899        8.39576092152435        5.45133463269449
O           -8.32217528586945        8.70094804179286        6.61639298024712
O           -9.35926624385250        8.34091439672091        4.76624271310248
H            3.07490530735883       -0.40829367295148       -0.98680264459388
H            3.62140849455773       -0.57838144736959        0.67952630095580
H            4.28436285383453        0.70263774539252       -0.33354425658923
H            1.38033748907490        0.50341907792348        0.58873972694137
H            2.60810793488895        1.56947125828772        1.28949710651123
H            1.91163594162418        1.62050918253809       -1.66962486892111
H            0.83894031443891        3.79832488603899       -2.51761852710858
H            0.44168506114459        5.02728732302253       -1.30103423933458
H           -0.23248010735173        2.42243995703474       -0.82340140534658
H            0.16440962318892        2.60681280380890        1.54458646135968
H            1.53362391254517        3.69630665690739        1.31425552641940
H           -2.44381325529725        3.87913708640652        1.07171827455146
H           -0.91451317931933        7.75891315844798        1.50418308156862
H            1.51445402820160        7.40088584802828        1.32120312059407
H            1.94867156623909        5.92874730340682        2.20053375737789
H            2.02052474053015        5.95382620731672        0.42809633264961
H           -3.64910501766686        7.28273175979058        0.87006560347612
H           -4.11580100706423        5.66823854997158        1.47046565900436
H           -3.80767844176492        7.80189225047392        5.47525503980207
H           -5.96571391620167        8.39461919588723        6.58620131103207
H           -8.03699885160729        7.68122343098668        2.92707799770031
H           -5.92264014823844        7.09735517493709        1.80764650537790
