78
 energy: -92.999581059049 gnorm: 0.000448138681 xtb: 6.7.1 (edcfbbe)
C            1.40773495814059       -0.92903435727756        0.58069115883164
C            0.43394477857782       -0.50928730422844       -0.47214943535333
C           -0.59189682519431        0.45766646536536        0.14250121839749
C           -1.78244568253432        0.71805641757945       -0.77955378737574
C           -2.67724057371329       -0.49907859927203       -1.02553188342003
C           -3.22113232393372       -1.17528749028177        0.23573105084130
C           -4.00938121641408       -0.25737496060296        1.17377441623600
C           -5.21140974262151        0.43682607965737        0.52907461608296
C           -6.26288825672525       -0.50538477847234       -0.05865413989898
C           -6.93631537389994       -1.43595686767106        0.95166599538729
C           -7.70158930924874       -0.72878971618356        2.07258903876956
C           -8.79523027256091        0.23233842140116        1.60125917612770
C           -9.85830444381972       -0.39150186739423        0.69578259486281
C          -10.65029625833960       -1.53941599326280        1.32392233570345
C          -11.45333568463608       -1.16504923901757        2.57067853086054
C          -12.47712012651991       -0.04625030208075        2.36693238650865
C          -13.51714607027752       -0.30950697943330        1.27733011928679
C          -14.37282534504467       -1.56021993623678        1.48847072779358
C          -15.20040242952519       -1.56794210191702        2.77392608743913
C          -16.23654167004967       -0.45228517134053        2.82833257683508
O            1.45049908616731       -2.00627921125649        1.12020530829855
O            2.22994767112309        0.08275915540646        0.93947759708564
C            3.22165285887938       -0.20252819251137        1.90917516120155
C            2.70843306743257        0.03063774751411        3.34330796831951
N            1.61014361351863       -0.86853444063928        3.64643176931408
C            1.86760083545871       -2.15915290178322        3.90790904886081
C            0.84864593580040       -3.07117623449439        4.06177712845554
C           -0.46938073878289       -2.64808038851043        3.93595929734350
C           -0.71663016492834       -1.30427813811321        3.68290702801792
C            0.34491325197709       -0.43790033170370        3.54040915441011
H            0.96047822968467       -0.01072366646313       -1.28532987513215
H           -0.06255248932820       -1.40268510572190       -0.84691787069519
H           -0.95487448170572        0.04205490275066        1.08450161898275
H           -0.09237648939863        1.40439869101486        0.35852862420111
H           -2.37987457940514        1.51708011271746       -0.33791917524143
H           -1.41587416211611        1.07973106042402       -1.74184953990356
H           -3.51391323756996       -0.17665955079164       -1.64585573271351
H           -2.12906739076481       -1.24683273107038       -1.60224398146620
H           -3.86620935058877       -1.99738462555475       -0.07722305831620
H           -2.39359735505848       -1.62391903309966        0.79441473204122
H           -4.35683379624311       -0.85293469993411        2.02150680141564
H           -3.34641475161987        0.51597474476311        1.57249189765867
H           -5.68102697569405        1.07105899743286        1.28327536421095
H           -4.86036397893503        1.09644359482511       -0.26690914263906
H           -7.02648202394419        0.10402730147413       -0.54417472496092
H           -5.80497527062426       -1.11825035928667       -0.83780203446766
H           -7.62456598846348       -2.08400258708955        0.40630398491586
H           -6.18413167675705       -2.08591193310780        1.40580845332535
H           -8.14847686910362       -1.49319241567468        2.71171900496112
H           -6.99928530064957       -0.16723644142571        2.69389911535448
H           -9.27895459036896        0.65473637978761        2.48429110004321
H           -8.33492904628330        1.06438402799294        1.06357029022469
H          -10.55119254529240        0.39609136120492        0.39352441398676
H           -9.38353408475412       -0.76189818573312       -0.21524412900423
H          -11.33078289146726       -1.93531974601825        0.56752463146373
H           -9.96476222001413       -2.34755793553912        1.58910920590730
H          -11.96999965271253       -2.06003663658666        2.92410373728768
H          -10.76697024863188       -0.86044160600151        3.36424650814791
H          -12.98846917981786        0.12295140145646        3.31677797637016
H          -11.95144025273453        0.87885688815078        2.11913710457878
H          -14.17254652786868        0.56143950229587        1.21260961437196
H          -13.01267063028710       -0.39855211728778        0.31277951920894
H          -15.05352646811240       -1.65031659293769        0.63789142016238
H          -13.72757344404550       -2.44137963377813        1.48298646269904
H          -15.71612010581063       -2.52942851100117        2.83991573011839
H          -14.54015445242651       -1.49621039156797        3.64028218370699
H          -16.88290930368434       -0.48951642805947        1.95402539775581
H          -16.85620382815506       -0.55615362955193        3.71598165783756
H          -15.75957957363751        0.52406672045216        2.86182849622100
H            3.55334069815333       -1.24039079572599        1.79027385834547
H            4.04847366305377        0.48135429123623        1.71031816119821
H            3.53072134857252       -0.14115238557896        4.04031876184252
H            2.36476192208562        1.06231709813976        3.43883522183431
H            2.90463465133409       -2.45045315277361        3.97800312304604
H            1.08481951324360       -4.10382044654839        4.26083896294234
H           -1.28403061988387       -3.34829835391379        4.02956711786540
H           -1.72478507541678       -0.93363918924325        3.58385104855130
H            0.19672733508055        0.61094302776461        3.32876571710421
