19
 energy: -27.100446005741 gnorm: 0.000510470769 xtb: 6.7.1 (edcfbbe)
C            1.10319586948501       -0.03633763290076        0.40087159021556
N            0.02794118310487       -0.05226259110293        0.77520432366749
C            2.48186205426592       -0.06044379775366       -0.06754311981453
N            3.10813500462803       -1.32921325926315        0.28398654691678
C            4.19068231669624       -1.35582325968405        1.06946442200971
C            4.79583863498242       -2.54767813165359        1.44200495599859
C            4.22638635229550       -3.73439672587705        0.96825740141146
C            3.10372780304788       -3.68517419523019        0.15832158457973
C            2.55828993079421       -2.46142279239970       -0.17293066394084
C            6.00038012374475       -2.56084951522608        2.31045456735199
H            2.48063655558060        0.07040136224601       -1.15675168846333
H            3.02463297622241        0.77454032284631        0.38525697693213
H            4.58478817669710       -0.40869415971628        1.40941110001034
H            4.66432885431531       -4.68337976498290        1.23799841312715
H            2.64822738284747       -4.58783924871693       -0.21611823887222
H            1.67938529418953       -2.37582586417677       -0.79493216835241
H            5.81579587818944       -3.16338466654466        3.19850628914440
H            6.83604379458276       -3.01942270544452        1.78311898007077
H            6.28832181433045       -1.56042337441923        2.61826872800763
