73
 energy: -80.369688965767 gnorm: 0.000166809062 xtb: 6.7.1 (edcfbbe)
C          -16.17232424231977       -5.80733079882378       -4.98383453864040
C          -14.94408319863143       -6.70507761563565       -5.07209397082434
C          -13.63198317056370       -5.92570587118056       -5.17691120735361
C          -13.32605334031692       -5.01340163805979       -3.98693068447064
C          -13.25643189437301       -5.72015150374903       -2.63187482990558
C          -12.20196476900149       -6.82454114824663       -2.53364874428258
C          -10.76105903539920       -6.36722895517634       -2.77670634279031
C          -10.27449450823415       -5.25566000687079       -1.84333197626270
C          -10.37897133761120       -5.57300653567278       -0.34866503297966
C           -9.70451515701657       -6.84638227025083        0.17038205798159
N           -8.20981658850725       -6.89634426624893        0.24340365493553
C           -7.63665238969461       -5.59957467610056        0.78118822139290
O           -6.29895932721541       -5.76849134495353        1.02486161544498
C           -5.37665246270858       -4.83924253844626        0.40563765195668
C           -5.49621914827316       -3.44010292483736        1.00813529648218
C           -4.95130522159776       -3.31474406906321        2.43350844434805
C           -5.83958942295204       -4.00470262191447        3.46671362729987
C           -3.51261364171434       -3.82939085102414        2.46301150979767
C           -3.39173800008895       -5.25676504391039        1.93641476223944
C           -3.99100538472404       -5.49579253808046        0.54296156010630
C           -3.05546013543217       -5.20173375295223       -0.65449143137494
C           -2.33222919482308       -3.85923392306511       -0.62169158641694
C           -2.01991710599845       -6.31995039355663       -0.79057623705301
C           -7.82956110993867       -7.97807967027985        1.17600132676706
C           -7.60097817973418       -7.19020414471227       -1.06590329081359
H          -16.17992043429146       -5.23722974165273       -4.05822902849793
H          -17.07829952164284       -6.40757835630008       -5.01625307975543
H          -16.19474564498069       -5.11046206681506       -5.81853135639740
H          -14.91661314778606       -7.37129765268386       -4.20755153023375
H          -15.03228106787900       -7.33408559462288       -5.96078558734577
H          -12.81278495062909       -6.63542074497307       -5.31443379277029
H          -13.67051926989041       -5.30255588528178       -6.07336236355327
H          -12.38139930049128       -4.50015781547200       -4.18205646857820
H          -14.09639191232498       -4.24354147215715       -3.92455907263759
H          -13.07637230253699       -4.96768138326541       -1.86010916634610
H          -14.22775128320995       -6.16635209353845       -2.41494333763306
H          -12.28228837940544       -7.29072967489337       -1.54790269131888
H          -12.43295338278326       -7.59773489231335       -3.26725526361622
H          -10.10620744911172       -7.23960594241691       -2.70340392828559
H          -10.67782202110770       -5.99970258625598       -3.79983235218327
H           -9.25275377475607       -4.97771987438115       -2.11469531463191
H          -10.88410014288767       -4.36877785047882       -2.01922716699559
H          -10.05016797503631       -4.70636911376206        0.22594810669725
H          -11.43779391716208       -5.70709025901080       -0.11886176327995
H          -10.06913558558239       -7.00464090608057        1.18778633005395
H          -10.02310682153408       -7.69530361275158       -0.43671731255960
H           -7.82763153458208       -4.81364427309520        0.04185761320919
H           -8.18268692679614       -5.38160138307681        1.70972764991726
H           -5.63974893587558       -4.77520430246188       -0.66348573252125
H           -6.54397317739930       -3.12576845793447        0.98686348610963
H           -4.94359599450006       -2.75980233720364        0.35959146061589
H           -4.93500735211078       -2.24718585821040        2.67988101665841
H           -6.84539045312206       -3.58838505994023        3.43873652117892
H           -5.89750581659382       -5.07414939257088        3.28985660524509
H           -5.43765564502418       -3.84267917371316        4.46343693516926
H           -2.89111886968301       -3.15492535292475        1.87684258635609
H           -3.14152841971349       -3.80674759805717        3.48895324744026
H           -3.89719809666170       -5.92459115456745        2.63590390331313
H           -2.34087036193052       -5.54462955434792        1.92341766177757
H           -4.19163806354390       -6.57384529526879        0.47886830708857
H           -3.67945387001102       -5.22209884727235       -1.55805952677503
H           -1.61963779396049       -3.82325642845413        0.19670167005368
H           -1.77793099117142       -3.73024038773746       -1.54867435591098
H           -3.02411303701559       -3.02738127277549       -0.53111999652275
H           -2.49820881502094       -7.29108973788829       -0.89982877192797
H           -1.39955999006344       -6.14764516097722       -1.66592132993283
H           -1.36950492945701       -6.35472811350157        0.07907136901165
H           -8.22635004082557       -8.92857837523749        0.82634146302490
H           -6.74462150204953       -8.03347045429095        1.23801377980013
H           -8.21743027622638       -7.77035612988257        2.17122724920774
H           -7.91920656585251       -8.17071063917574       -1.41397487633929
H           -7.89183662458946       -6.44245132900541       -1.79804865066587
H           -6.51668966382361       -7.18871730919291       -0.96307300159476
