43
 energy: -56.439062419833 gnorm: 0.000642363303 xtb: 6.7.1 (edcfbbe)
C            0.92038429428866        0.08620123982531       -0.01566325792559
C           -0.27624777667064        0.06381571414084       -0.03096155739716
C           -1.72586965674121        0.03070073988754       -0.03712408488648
N           -2.26780300587146       -0.68570270285517       -1.22675832255077
C           -1.79040834190675       -2.11101201812813       -1.15472293665167
C           -2.27021047325249       -2.79695375335120        0.02684820560548
C           -2.64005823640238       -3.37690004874656        1.01692995326322
C           -3.08176040068886       -4.03157444466157        2.18585515500708
C           -3.68091918695079       -3.29919536907305        3.19046419712715
C           -4.11934140872801       -3.92737726387561        4.35977627017973
C           -3.95600490594431       -5.27664477456025        4.52119584349556
C           -3.34744971652668       -6.05890093945017        3.51740722734544
C           -2.90002048855830       -5.43652518511995        2.32317521522274
C           -2.29426332145750       -6.22350345781669        1.32422974058521
C           -2.13803328869124       -7.57078987148611        1.50096622997939
C           -2.57767191748493       -8.18948683462702        2.68119599409481
C           -3.16888527905311       -7.45065883190063        3.66719403326144
C           -3.76095024615804       -0.72571545570195       -1.17222023171114
C           -4.49335887558595        0.59574717270603       -1.33026522377683
C           -1.76510182205927       -0.10296992456030       -2.51257981699974
C           -1.54602740296060        1.40368444577093       -2.54394138684225
H            1.96987568850709        0.11819310522301        0.01171472190530
H           -2.07040580929232       -0.50099368932985        0.85627982970823
H           -2.11330707462293        1.05050566172655       -0.01820385431673
H           -2.12749359520936       -2.63330071618707       -2.05562752052798
H           -0.69526500100411       -2.09619002802184       -1.14033566077396
H           -3.81305164351746       -2.23225360726391        3.07605506612220
H           -4.58569502642362       -3.33494833783984        5.13177568955017
H           -4.29189574196502       -5.76428365612265        5.42395934166838
H           -1.95456911000540       -5.74446725524605        0.41677412896603
H           -1.67339153141624       -8.16802885470838        0.73104079707263
H           -2.44415724341011       -9.25346638717692        2.80264948141112
H           -3.50920840202282       -7.91921648385669        4.57855664521496
H           -4.09159497603576       -1.40603426272501       -1.96118606243421
H           -4.02802348908858       -1.17845094428460       -0.21373205417030
H           -4.37867435883627        1.01264998393046       -2.32644826856231
H           -5.55303754154946        0.39983523658934       -1.18253285981988
H           -4.19659191880276        1.33313222958357       -0.58970513146915
H           -0.80489440569502       -0.57467548527656       -2.73262516879988
H           -2.47158743166282       -0.39223818705222       -3.29314334407537
H           -0.72974555195904        1.70185869383003       -1.89176516407786
H           -1.26341760922730        1.66824636677785       -3.56030675508380
H           -2.43286676936221        1.97420818101351       -2.29154510393509
