19
 energy: -27.103443617429 gnorm: 0.000619629556 xtb: 6.7.1 (edcfbbe)
N            1.19535384984066       -0.05775225909918       -0.13817442890360
C            2.33365480378683       -0.05189809679534       -0.11061684541534
C            3.79143256408567       -0.05546861324554       -0.11910764642181
N            4.27142971617246       -0.33366553093577       -1.46503050337692
C            4.54101871041338        0.67742011335477       -2.30601171121206
C            4.93610221847419        0.43910571801778       -3.59855498803199
C            5.05901193166891       -0.87385452503201       -4.07327687293833
C            4.76200334755390       -1.89994729053053       -3.16845978456855
C            4.37144225483232       -1.60410089441822       -1.88534360188854
C            5.46877102959309       -1.15003115119439       -5.46458305367865
H            4.14827714773186        0.92213941153802        0.22009316418047
H            4.14473295139324       -0.82195387988459        0.57867055554693
H            4.43517375216098        1.68321078427957       -1.92616410322244
H            5.14971251624234        1.27394740610918       -4.24777102450479
H            4.83566647292545       -2.93272208365531       -3.47126792009166
H            4.13192699873460       -2.38300866488393       -1.17589089949112
H            4.65981202457053       -0.87471112916965       -6.14383984738958
H            6.32828643043013       -0.54214921402607       -5.74266978272762
H            5.70033127938947       -2.19994010042879       -5.61683070586438
