36
 energy: -56.312154352753 gnorm: 0.000347318887 xtb: 6.7.1 (edcfbbe)
C            0.02087938766181        0.62018287220869       -1.09516238425066
O            0.99322132804668       -0.34413254523797       -0.75559907711723
C            1.43982214876635       -1.19685263908707       -1.71421285285688
C            0.99595689375639       -1.17509559026952       -3.02046240540797
C            1.46646527180837       -2.07584541216536       -3.99298849904393
C            2.42816124053358       -3.02191411166065       -3.62067325165463
C            2.88507291398063       -3.04637844158477       -2.32739384542770
C            2.41794139846353       -2.16040893191691       -1.34548531064522
O            2.97150252054763       -2.33813497403224       -0.14583795000451
C            2.64217033215437       -1.55527630703716        0.98749388578728
C            0.92945181679732       -1.94497313963111       -5.32488983293163
O            0.17596837896102       -1.06668015189533       -5.69897558625491
C            1.37010681022126       -3.01507209404074       -6.37607927678711
N            0.53726079783658       -2.85397652720301       -7.52820739877505
C           -0.42382254806260       -3.71180168631000       -7.97555030179341
C           -1.13829425637187       -3.05645891936820       -8.92939079385408
N           -0.61441243727685       -1.80266836553576       -9.04092509697311
C            0.38909628698240       -1.69730385786883       -8.17448868646323
C           -1.09705183788168       -0.77184679336337       -9.91885965236703
H           -0.90539231449742        0.15078614507904       -1.43828625282391
H            0.39074698817761        1.31008312034732       -1.85875067691158
H           -0.17185893866732        1.16916186159525       -0.17541872659551
H            0.25848124650947       -0.45648577342207       -3.33925131633879
H            2.83404018460938       -3.72422130225925       -4.32993786867706
H            3.63112022276884       -3.76064772607786       -2.01814094284750
H            2.88076979765762       -0.50285330654814        0.83029701251722
H            1.58853106136834       -1.65471291851372        1.25056958408106
H            3.25935740013143       -1.95440233051376        1.79123558493140
H            2.41859057237051       -2.83459283816087       -6.62664814659439
H            1.25373204278588       -4.02262653252280       -5.97933496379741
H           -0.52882453314215       -4.70842011936595       -7.59837846989847
H           -1.96617305716628       -3.38956356485074       -9.52101345269888
H            1.00094151538660       -0.82771064483895       -8.03910070245384
H           -0.39803641885805        0.06136476716052       -9.92888264227986
H           -1.20616637085786       -1.16304526535395      -10.93017831581626
H           -2.06900584556004       -0.41223595576592       -9.57701138695811
