44
 energy: -67.358552336933 gnorm: 0.000360499592 xtb: 6.7.1 (edcfbbe)
O            2.20508877589707        1.15949697937092        2.25083928122225
C            3.17839964890665        0.99989660344949        1.53480274222019
C            3.68967746504622        1.94369998388981        0.58833395843666
C            4.86711228659819        1.76672903784900       -0.16038099520161
C            5.29853598190229        2.72420557716241       -1.03625395877352
C            4.58251213892675        3.93013121830117       -1.23197985181848
C            3.40062532188963        4.10419121360485       -0.47338082223930
C            2.97707457724979        3.14625659526927        0.40178043356438
N            5.00899518916600        4.86779370394976       -2.09881888291680
C            6.16925399620936        4.64006813904085       -2.92947829302785
C            4.31403642866172        6.12857451520739       -2.22648835097230
C            3.95547382174823       -0.35753102667242        1.68469478467838
N            3.13128976124866       -1.22403342384755        2.46537539576419
C            2.48178555588831       -2.34634266440009        2.03761022815436
C            1.58107323458898       -2.69646538827041        2.99312826589059
N            1.69015250673122       -1.76398632626849        3.98178760132542
C            2.61972750198419       -0.86955331403977        3.64435602002044
O            0.93982787423823       -1.70022394112696        5.10467399154221
C            1.16402294998784       -2.69249178424014        6.07840547125888
C            0.22710149846296       -2.73105121070085        7.09966166541413
C            0.37915302112544       -3.65627202481006        8.11523466610716
C            1.45141614536492       -4.53504761636575        8.10526183925952
C            2.37632519090070       -4.48485582539591        7.07875606600901
C            2.24098189808525       -3.55963577634632        6.05435869322215
H            5.46360149827474        0.87487074443496       -0.04453448869517
H            6.21378865920534        2.54917884265236       -1.57563571234759
H            2.81160792639575        4.99811454678804       -0.58439031000431
H            2.07262550469102        3.29064009430168        0.97262195432466
H            6.06935166466725        3.70840959167048       -3.49011024793760
H            6.26919915760916        5.45171886509765       -3.64451796964799
H            7.08321231132004        4.59712336517161       -2.33073155726230
H            3.32417269873780        5.99192091769721       -2.67040875083222
H            4.20142985942775        6.60972337592801       -1.25307860033917
H            4.88555656744895        6.79557183269830       -2.86577978744665
H            4.14913834471337       -0.81301102454538        0.71488783605120
H            4.89853132770940       -0.14986800578268        2.19605221129757
H            2.70259226265400       -2.81560587842283        1.10057751650824
H            0.88824016912570       -3.51137857811414        3.04591435118356
H            2.91109528034418       -0.03569100947748        4.25120391837670
H           -0.59515526825261       -2.03510163279739        7.08304520181454
H           -0.34335084341090       -3.69019549024462        8.91518363219589
H            1.56622246452282       -5.25660589716778        8.89818804861139
H            3.21429450071516       -5.16383551569832        7.06668276138690
H            2.97416314328773       -3.52774238879748        5.26106004362214
