67
 energy: -74.460164474475 gnorm: 0.000518038855 xtb: 6.7.1 (edcfbbe)
C            1.22789502888398        0.47569211586153        0.20088036331431
C            1.07883113289567        1.01298100567990       -1.21762206652001
C            1.37341486054720       -0.03322948927472       -2.29365880727911
C            0.44317758918725       -1.24806846776746       -2.28599095956231
C           -1.04060266558051       -0.92888335230222       -2.47844016111365
C           -1.38279447358429       -0.20407563795654       -3.78192432575082
C           -0.95744253230721       -0.93030404396485       -5.05972018215083
C           -1.51635105727174       -2.35179019033754       -5.21237513495034
C           -3.00821600478274       -2.38231912236239       -5.28000071238109
C           -3.70442543911834       -2.80506722469103       -6.32156637696272
C           -5.20023347710699       -2.82726667278945       -6.38301706124091
C           -5.76511814687195       -1.82542452360191       -7.39946975122712
C           -5.33236975732124       -2.06906437202605       -8.84665421852618
C           -5.68380422254965       -3.44984276722056       -9.40422458773038
C           -7.17130795061044       -3.80787395461312       -9.35509418957882
C           -8.08833524838018       -2.83663852865703      -10.10291976043867
C           -7.79360073765240       -2.68368629885303      -11.59581656794543
C           -7.92580287151217       -3.97153803003113      -12.41530859067358
N           -9.26120145140203       -4.52731291303860      -12.40721869812385
C          -10.37068562992316       -3.94354680648333      -12.91054175811295
C          -11.49016933922634       -4.59493074122119      -12.57251028582001
N          -11.12752968045337       -5.78595363941913      -11.77561659975010
C           -9.65475612107833       -5.62755068367805      -11.55213240165874
C          -11.48106427999583       -7.03661997746329      -12.47943303493567
H            0.47747019422698       -0.28090245811457        0.41522141428433
H            1.11057306250494        1.28066613112895        0.92287636175221
H            2.21233898903900        0.03361623861079        0.33868913636526
H            0.07165351911510        1.41140074213219       -1.35204881264950
H            1.77630175786747        1.84325893827331       -1.35419357447695
H            1.32859416259034        0.45030640065248       -3.27181625134409
H            2.39704887709510       -0.39212226154057       -2.15736012674625
H            0.77049953460856       -1.93155188668954       -3.07261326887622
H            0.55691718651371       -1.77800931482794       -1.33815939958351
H           -1.60069777156881       -1.86566227300097       -2.42796261888636
H           -1.38511974209576       -0.31084364790317       -1.64690515096975
H           -2.46191767847891       -0.03509168377867       -3.80702617204367
H           -0.90816070388672        0.77924358746780       -3.77976792409306
H           -1.28456109831509       -0.33536758532249       -5.91675333957868
H            0.13190756584855       -0.98493225632621       -5.09787254931960
H           -1.10255526414815       -2.79168104053897       -6.12304368181445
H           -1.18402722114240       -2.95966616819660       -4.36781794525420
H           -3.52720576408658       -2.03118454550016       -4.39795048477696
H           -3.18760087008491       -3.16740934591820       -7.20104775801978
H           -5.53933999040658       -3.83604006483824       -6.63396331231987
H           -5.60311157396990       -2.57793183832207       -5.39901724963663
H           -6.85582631896653       -1.83594398510608       -7.33302081230257
H           -5.43288200436898       -0.82514632221841       -7.11373769324707
H           -5.78035118533092       -1.29524573710275       -9.47450400207357
H           -4.25073061738025       -1.94540175351228       -8.91587744765844
H           -5.32828863681605       -3.50635272312414      -10.43581205465501
H           -5.13929351393859       -4.20944419538495       -8.84111725104876
H           -7.28756759194169       -4.82109755938159       -9.75308584005888
H           -7.49303976208840       -3.83733450131020       -8.31286174924320
H           -9.13002816015361       -3.14479747910005       -9.96681911828536
H           -7.99551934831601       -1.85172339372331       -9.64549720545752
H           -8.47163406698811       -1.93334376529724      -12.00742137637393
H           -6.77812469518105       -2.31258517293872      -11.72816792648225
H           -7.65543301554529       -3.76057608675641      -13.45388869283534
H           -7.24546723843158       -4.73588645071298      -12.03931460852750
H          -10.30031294855547       -3.06331951972054      -13.52002163852213
H          -12.51018217923404       -4.43238413880815      -12.84027856616906
H          -11.62959951578993       -5.78214643470465      -10.88215091773722
H           -9.12882031619607       -6.54859486921347      -11.83120535991282
H           -9.44804139942154       -5.40743743860342      -10.49621216302000
H          -11.19461677596499       -7.90316833381751      -11.88575814131825
H          -12.55483213933347       -7.06680299444409      -12.65595734195149
H          -10.96893326607321       -7.06297849627228      -13.43961151601960
