50
 energy: -65.559514084772 gnorm: 0.000413248194 xtb: 6.7.1 (edcfbbe)
C            2.19269169251045       -1.09903135826352       -0.34926820500159
C            1.77933302689974       -1.23909489521813        1.11054609035269
C            1.21323066680804        0.05346221618761        1.70880919366685
C           -0.08561722673149        0.47021180725019        1.02804917750601
N           -0.71392381057158        1.64681669586130        1.69755023911688
C           -1.79675164972738        2.23263124671344        0.87997212355505
C           -2.96484122930360        2.04634254110514        1.50662413835470
N           -2.80855152264548        1.42965740788509        2.70007442003598
C           -1.39376785024991        1.31538784775834        2.98665982988314
C           -3.81081809764084        1.24393060941589        3.71823364172893
C           -3.95263291245060        2.42241327500325        4.68446337669486
C           -4.50975270154165        3.66867532720127        4.01184585380681
P           -6.22339730159950        3.31919498269363        3.42738492340039
O           -6.91019933848777        2.23412646233983        4.11407144992620
O           -7.09282883450805        4.65149833052048        3.48276278028090
C           -6.83926801919695        5.83263005341100        2.72599239567841
C           -6.08943805387101        6.87638209004417        3.53770295728009
O           -5.93353224243173        3.06980155123437        1.83812457107066
C           -7.04564020979355        2.59278306036826        1.07367317542352
C           -7.08430631944761        1.07516827655737        1.04157701014526
H            1.33329686494074       -0.95536362657740       -0.99911874174885
H            2.70289605714838       -2.00155300458328       -0.67233324931812
H            2.87597256342474       -0.26293413684982       -0.47809485975117
H            1.04172848274747       -2.03731605271727        1.20839780187800
H            2.65226462241280       -1.52398304942395        1.69850149412313
H            1.04482477113829       -0.10574133317577        2.77604221459669
H            1.95491041821345        0.84846911623523        1.59920941205108
H            0.11229057976399        0.75024429411048       -0.00760834546141
H           -0.81363411785054       -0.34310356676431        1.03085069092366
H            0.03570020270681        2.32897892023128        1.84910087582440
H           -1.56984809032796        2.62737332519531       -0.08528022523221
H           -3.94578279522257        2.32261253914373        1.16555894864812
H           -1.08494250506521        2.02178700670591        3.76986165100407
H           -1.14169149305210        0.29929618023148        3.30871844782911
H           -4.77015785600847        1.08893313379320        3.22400145055562
H           -3.56042016071986        0.33852746180417        4.27763923279213
H           -4.65849661343675        2.11489147040003        5.45661055404657
H           -2.99675306282394        2.64550201615655        5.16551423584590
H           -4.57971801273731        4.47047866358848        4.74675094833421
H           -3.88605223068137        4.00536091433924        3.18381307195434
H           -6.28856766331730        5.57974062661923        1.81412776204966
H           -7.82597547739515        6.21512493566085        2.44997621889045
H           -6.58644400514763        7.02536380784753        4.49248597169061
H           -5.06129110336046        6.57307285413794        3.71873430948645
H           -6.08379193540961        7.81807149964718        2.99584273734867
H           -7.97498155978794        2.97755181224498        1.50366635308069
H           -6.91752746300635        3.00667680109099        0.06859947250968
H           -7.22108656459727        0.69412033202943        2.05006405961436
H           -7.91764564441342        0.74853711169283        0.42649816126602
H           -6.16203427420543        0.67430241908833        0.62519020221945
