45
 energy: -58.744425078745 gnorm: 0.000162337184 xtb: 6.7.1 (edcfbbe)
C            4.38658974914592        1.09571179653789        0.69717861684745
O            3.18482868305433        1.14868560760369       -0.03829465207171
C            3.20948222698159        2.10253815918908       -1.07820371395064
C            1.98525148924393        1.90862477834987       -1.97223890444759
O            0.78214439367977        2.42680052703077       -1.43709100269007
C            0.32668807367594        1.74887535973738       -0.28334602315176
C           -0.95792066143020        2.39325397026576        0.23637639726642
N           -2.16767660312593        2.27145759557123       -0.62960379759950
C           -2.42337053213968        0.86883256083593       -1.07178280115192
C           -2.42870759848904       -0.20431328533018        0.01627832079244
O           -3.52918332637973       -0.01657001983691        0.88337825774853
C           -3.62506032626680       -0.98536683150017        1.91031809620010
C           -3.94183511718904       -2.39747222706255        1.41913960829230
O           -2.77177643381270       -2.98129237952364        0.88812541537445
C           -2.90706502487339       -4.36008173894043        0.62622284566012
C           -3.33235981248362        2.77206680974929        0.12879783227855
C           -2.00301454359834        3.11337928588355       -1.83223577767903
H            4.25126824389524        0.32403038469906        1.45135026872144
H            4.59588103926327        2.05446952610518        1.18414693420492
H            5.23103919273601        0.83338081908069        0.05161165357959
H            3.21781238735592        3.12330230509890       -0.66729344691174
H            4.11152565425957        1.96938318012778       -1.69104857408100
H            2.12917888305759        2.45181506034600       -2.90731431965179
H            1.87055430461879        0.83638545462512       -2.17989810635476
H            0.20202304388714        0.68155653005927       -0.50902363487467
H            1.07333218600820        1.82136711728882        0.51706533073053
H           -1.19368881935058        1.95837847710236        1.20810191400755
H           -0.76390188768913        3.45964254910050        0.36846069822364
H           -3.40341036361019        0.85773565672411       -1.55310948757255
H           -1.66768682354423        0.60576240334495       -1.81251832227509
H           -2.50521951532499       -1.17629066951466       -0.48650727123131
H           -1.49873272101702       -0.21819704714261        0.59988786033413
H           -2.68867599983700       -1.01656064439195        2.48318972545623
H           -4.43626851694056       -0.63287424697147        2.54893146748521
H           -4.30497710346443       -2.98818670124683        2.27129981678290
H           -4.73645926444655       -2.36224105410562        0.65874288179959
H           -3.14501006245085       -4.91227357282925        1.54117331781991
H           -3.69069636761644       -4.54754083425006       -0.11602914914906
H           -1.94783085011764       -4.69446982406525        0.23810582493005
H           -3.11801549819995        3.75681474311983        0.53884825797735
H           -4.19458208885406        2.84709979475368       -0.53086008303063
H           -3.57765761340766        2.08056885746516        0.93246654642528
H           -1.97816510827547        4.16258664586251       -1.54457084537122
H           -1.06429442529405        2.87388629006883       -2.32788793682998
H           -2.83447654165406        2.95711883107093       -2.51639003889813
