228
 energy: -257.946248112713 gnorm: 0.000192570170 xtb: 6.7.1 (edcfbbe)
C            1.46870290015934       -1.55992653921657       -0.28690704154905
C            1.67206339505062       -1.95872533842508        1.16986108964894
C            1.71821366628081       -0.76372978970508        2.12315328712362
C            0.44306029137935        0.08078266683272        2.16462851510091
C           -0.81884026534307       -0.67494216445410        2.58535741899731
C           -0.75495386795184       -1.31235253460700        3.97445034769898
C           -0.52531971294856       -0.32891739469775        5.12328762908510
C           -1.58958939505795        0.76047216989443        5.26773703964095
C           -3.01724033442189        0.24508656369777        5.45915093771739
C           -3.22237806076461       -0.64274236713214        6.68803153641444
C           -2.89475029735942        0.02470190976109        8.02493946345567
C           -3.68731826517322        1.30011229563460        8.31826156306948
C           -5.20868028205607        1.13066190193940        8.32241601928310
C           -5.74402044557885        0.18359103595062        9.39909844162170
C           -5.59951694900624        0.72465090884290       10.82294898960143
C           -6.59532600294139        1.84851689567144       11.14167108783241
N           -7.89898782506878        1.34180589995768       11.48925981148109
C           -8.31783642456697        0.88282744122807       12.70764304002426
C           -7.61312187488042        0.77393763498653       13.90641587100730
C           -6.27955351871373        1.01003051442644       14.20181594982908
C           -5.82233387764538        0.94116990166745       15.50740930592326
C           -4.57356747941353        1.22969042170892       16.06038237945895
N           -3.37729203028228        1.48130031280935       15.44931900733283
C           -3.11280541332268        1.54140597484645       14.03370245339204
C           -3.51785923954913        2.89439881872128       13.43215599089926
C           -2.52901677432704        4.02360412085503       13.72764831702239
C           -1.20857779427095        3.92727342254245       12.96165792229250
C           -1.38461967600078        3.94795231464144       11.44225581956918
C           -0.11073421006338        4.36275869630664       10.70396721723422
C            1.10842037565550        3.48140629148448       10.97972011053756
C            0.95021630293549        2.01045659001291       10.59107495583434
C            0.66059823669032        1.75893009876993        9.10991692484066
C            1.68487077968877        2.34878323764207        8.13862534461376
C            3.13292654945879        1.91629913360165        8.37637748730230
C            3.38234503611234        0.40849948425819        8.31027407729426
C            2.99427252268679       -0.25309295291812        6.98694934493212
C            3.66864078119332        0.33355969213517        5.74526548311239
C            5.19694036573274        0.28615852330949        5.75676099126292
C            5.75370432145642       -1.13176721915770        5.80166084331589
C           -2.42045635092455        1.71562412319998       16.41743228655334
C           -3.05784420034956        1.60153217900807       17.66248820532091
N           -4.37639738104628        1.29057257332784       17.41476497174272
C           -5.34961258486393        1.14110782183254       18.47002382736973
C           -5.95896200188881        2.48206554548551       18.90361059274096
C           -6.83051968422664        3.14180382072548       17.83298274657849
C           -8.16073041615433        2.41172621042860       17.61247616618312
C           -9.31527158910788        2.98013975648900       18.44056393493656
C           -9.98216873948621        4.21048652085606       17.82325656168022
C          -10.57973972509427        3.98903974507196       16.42944934120796
C          -11.49303043905562        2.76849856708500       16.29624744675371
C          -12.73210249671704        2.78705886083979       17.19244429154003
C          -13.70943782706115        3.92999854501355       16.91274604141940
C          -14.24916841401252        3.98686929542027       15.48192178194764
C          -14.95867844083807        2.71750115913323       15.00569093011613
C          -16.16900371313861        2.30157223190144       15.84410365586742
C          -17.28134235587327        3.34768103133692       15.93842324435138
C          -17.88175117267408        3.77619510286435       14.59863958781752
C          -18.55084397136640        2.63261032597017       13.84514470815507
C           -2.36279741377372        1.78557224468814       18.84737216988632
C           -1.01382421066552        2.07583981253804       18.75359856935802
C           -0.37824857133615        2.17865181022108       17.52018497850339
C           -1.06712541677049        2.00152108498339       16.33374995233632
N           -9.64612492117841        0.56662099018578       12.60423535644471
C          -10.06571100587771        0.80940440615081       11.31451457780940
C           -8.95880853392459        1.29925915641989       10.60532930301856
C           -9.06519179660840        1.64912234134987        9.26849723286665
C          -10.30130031311642        1.49425892398524        8.66674358700179
C          -11.39970730527601        1.01294160956407        9.37223297381273
C          -11.30315555331211        0.66360831799131       10.70709039893222
C          -10.54011016108943        0.03846978730984       13.60700725431218
C          -10.78182047034596       -1.46499712129979       13.43177089011318
C           -9.58623469011611       -2.34403304541508       13.80162288427081
C           -9.25073274593576       -2.38832294491267       15.29427610691573
C          -10.41463280816478       -2.85194282305731       16.16944721567780
C           -9.97849340354980       -3.24964574918681       17.58122724314153
C           -9.24776538683113       -2.15564663184543       18.36249345832342
C          -10.01528535475813       -0.84132975687679       18.51594060398903
C          -11.35744454330502       -0.94983621111998       19.24052343205068
C          -11.26967651045389       -1.45808624062262       20.68069433837027
C          -10.36548141236604       -0.63950212638160       21.60511729377814
C          -10.72812585450222        0.84223194301252       21.72344292573639
C          -12.13674442164823        1.12351176811055       22.24901030396886
C          -12.43517769407893        0.55269221225699       23.63673575144650
C          -11.50289660900572        1.03585310094753       24.74884716401169
C          -11.55944896511248        2.54282623394324       24.97041815327250
H            0.48683173715980       -1.11943163415708       -0.43988742149180
H            1.55048249154646       -2.43256111990645       -0.93096865051032
H            2.22245119167693       -0.83736662871317       -0.59259514374974
H            0.87966379107542       -2.64520258603072        1.47337472995539
H            2.61875826271128       -2.49791008625695        1.25809081283072
H            1.94033970021126       -1.13000886818602        3.12796464048134
H            2.54470945535733       -0.11285208710300        1.82551533793540
H            0.60925614639051        0.91538129512438        2.84943247928956
H            0.26889139011739        0.51139666336984        1.17674859238588
H           -1.66193086304336        0.01843700288519        2.54517658384869
H           -1.02270446111653       -1.46343064309938        1.85834349810452
H           -1.68627012087597       -1.85693612077793        4.14531507077201
H            0.05040251261760       -2.04928388795185        3.99355497321051
H           -0.46508644615378       -0.89932207153701        6.05348288207919
H            0.44115022864594        0.15911599139608        4.98347617281220
H           -1.31598984065223        1.39525072846150        6.11418446540622
H           -1.57444183245588        1.39400212946133        4.37881792883242
H           -3.68784247792262        1.10558184685036        5.51678886018573
H           -3.31124785822568       -0.32534908440835        4.57639700660115
H           -4.26010763430520       -0.98424559733705        6.69734467871834
H           -2.59843083779364       -1.53309008521202        6.59336698504268
H           -3.06336942816990       -0.70213488540559        8.82346209528824
H           -1.83334853441997        0.27597131594903        8.04614098525080
H           -3.35883813173658        1.69501757619497        9.28358842207109
H           -3.43503649593870        2.05328411443997        7.57028655285424
H           -5.65657328760253        2.12069609420385        8.44297412187340
H           -5.52427147398925        0.75584595634711        7.34852155228593
H           -6.79771806897646       -0.02702779521439        9.20297507574450
H           -5.21062229493899       -0.76458776789757        9.33050189435169
H           -5.75396789833264       -0.09262491557445       11.53109436377079
H           -4.58466838221436        1.09915461646970       10.96044416413629
H           -6.23906728562101        2.47843952832515       11.96013980536146
H           -6.71832496590367        2.49144117160033       10.26906808839297
H           -8.21614425985538        0.46831663001400       14.74760754576659
H           -5.59962678667718        1.26384614092648       13.41369031047666
H           -6.57606511447333        0.68996645749365       16.23609162787513
H           -2.04476016901573        1.37536986830750       13.88954056408458
H           -3.64229728341665        0.71894557078155       13.54597281078508
H           -3.61874463255545        2.78532226645005       12.35209670269093
H           -4.49269634731116        3.17742283751892       13.83620518752632
H           -3.00903705378059        4.96814203011103       13.46231108297444
H           -2.32369565657855        4.05417215159297       14.80030364477755
H           -0.59438718351086        4.78066910787023       13.25577882932984
H           -0.66753828373558        3.02479292597311       13.24942866739498
H           -1.70018605353849        2.96484990424009       11.08776855187702
H           -2.17127439727023        4.66208306557060       11.18470572127535
H           -0.31717038583290        4.36949164561329        9.63250395171310
H            0.13962111849108        5.38675385997567       10.99206975329473
H            1.95698189037392        3.90200022599035       10.43869982172208
H            1.35441106044318        3.53202571750214       12.04286593383951
H            1.86836311322493        1.48852915201590       10.86696155322279
H            0.14257626629666        1.56271437023699       11.17684175416327
H            0.60405994210198        0.67865151537437        8.95684001942984
H           -0.32064733993897        2.17125810277384        8.86030373136112
H            1.38827283883810        2.06899744200852        7.12559214231559
H            1.64334907811613        3.43905138912770        8.19172776673390
H            3.75885682911735        2.41399524909656        7.63336658133663
H            3.46011355719587        2.27276195461262        9.35558982864992
H            4.44271049979335        0.23284821918886        8.50207545257073
H            2.82893720078152       -0.08585239203132        9.11239044994663
H            3.23381991602715       -1.31629170001248        7.05420942891722
H            1.91318611608674       -0.17928026199691        6.85484315717913
H            3.31284199168927       -0.22122692357692        4.87310599929534
H            3.35220550169154        1.37103417745870        5.61763603640319
H            5.55712126165879        0.77666684214196        4.84900368177264
H            5.58049766826035        0.85445751241523        6.60577940464891
H            5.34806798556616       -1.72552515253921        4.98515037459813
H            6.83694575260816       -1.11434284124237        5.70622455654988
H            5.50619046136139       -1.62141239334645        6.74006861298020
H           -6.12600148024773        0.44435243057131       18.15281853169440
H           -4.83444622979825        0.68895773044920       19.32113579298140
H           -6.55651287084614        2.30648567455576       19.79936303525367
H           -5.14432916266482        3.15810830633200       19.17148008806240
H           -7.03450182110027        4.16895609950540       18.13736007125005
H           -6.26886476186855        3.19182439731564       16.89799448483896
H           -8.42507460290613        2.45381820258476       16.55625282853287
H           -8.04401008192627        1.35901834148677       17.87582113704121
H          -10.07086094915662        2.20488594758914       18.57165678072223
H           -8.94833910486586        3.24237293897422       19.43551625585886
H          -10.77051635014026        4.54206856211916       18.50096254015517
H           -9.25542058635095        5.02335280146721       17.75306624072316
H          -11.13780690725754        4.88538873456213       16.15507415007707
H           -9.77069312960461        3.88998212695044       15.69993138133311
H          -11.80852924060556        2.69422170710014       15.25308919396461
H          -10.92113380021829        1.86508095740494       16.52241809132367
H          -13.25278866456141        1.83420771834943       17.07360907195735
H          -12.42137997709695        2.85255525482540       18.23708006362764
H          -14.54616437097480        3.83577781003056       17.60705318708191
H          -13.22168846532323        4.88248781297337       17.13077889147928
H          -14.94143778404457        4.82773640634081       15.41496122809825
H          -13.42731244738689        4.19999095860341       14.79353535667019
H          -15.27579084643562        2.87294638804373       13.97223189599685
H          -14.24792041545465        1.88676070686429       14.99874868676387
H          -16.57877202377498        1.38324370493422       15.41835275578022
H          -15.83961834306249        2.06266638719326       16.85752931473919
H          -18.07974200400015        2.93407912524582       16.55975273427555
H          -16.90130941599494        4.23409752037358       16.45021766593333
H          -18.62729608235632        4.55019462318840       14.79557049451971
H          -17.10949368729073        4.22412059096794       13.97050402007354
H          -19.29393609076090        2.14688518518243       14.47380481928226
H          -19.05007716304787        3.00911784513585       12.95523886839797
H          -17.82312943263564        1.88730683172170       13.53362793177481
H           -2.84582596725550        1.70841971602603       19.80765113047549
H           -0.44234873823001        2.22483903713217       19.65569202093926
H            0.67590763270239        2.40294116526742       17.48708515875516
H           -0.55668053746221        2.08788000640368       15.38912606529370
H           -8.22718986557522        2.02539149578658        8.70519916472030
H          -10.41550278428942        1.75473818004406        7.62663023456380
H          -12.34693421214888        0.90999059365023        8.86747279926206
H          -12.16099193918819        0.29543611582800       11.24533753575737
H          -10.15121496708907        0.25191808955792       14.60104675676424
H          -11.49021949750395        0.57104047308390       13.50308903676722
H          -11.64209705693044       -1.74517612390599       14.03868349897052
H          -11.04032571588307       -1.65279743213416       12.38762406863421
H           -9.80657783111183       -3.36056145368694       13.46982861383983
H           -8.70485398400834       -2.00518712938380       13.25022341469001
H           -8.41477604280708       -3.07931276646420       15.42525424884732
H           -8.91135071458977       -1.40800837310098       15.63039686455293
H          -11.16828623114492       -2.06591904006177       16.23574443827709
H          -10.88414052204526       -3.72104890858228       15.70297024039418
H          -10.86130283261163       -3.56268968112452       18.14057874110140
H           -9.31480274979939       -4.11524738834430       17.51368092248694
H           -9.01116317561792       -2.54704197073655       19.35320456405855
H           -8.29475366998505       -1.94349923045377       17.86923384976624
H           -9.37912516698914       -0.14146336613712       19.06205147534754
H          -10.19564666466104       -0.41015500448860       17.52732421991778
H          -11.82533110952766        0.03733001261096       19.23717737944304
H          -12.01767980885187       -1.61601827294958       18.68167379379580
H          -12.27967979073951       -1.47688103407936       21.09372314841391
H          -10.90901807033994       -2.48898046024038       20.67721056957622
H          -10.39642262936957       -1.09434836235829       22.59665446881940
H           -9.33186858365709       -0.71257039196614       21.25697486055827
H           -9.99932272517274        1.31881781026648       22.38253462491404
H          -10.62905300565155        1.31830895243960       20.74543548228262
H          -12.28170268120363        2.20571690385500       22.26988266391575
H          -12.87031105034493        0.71817183029259       21.54874762431579
H          -13.46007549057271        0.82643063999950       23.89975315788240
H          -12.39336202373879       -0.53763363076156       23.59563271621537
H          -11.79375035876847        0.53368353212838       25.67457315265334
H          -10.47586013499079        0.73819007490003       24.52929519108700
H          -12.58385850067853        2.86249927309705       25.14834464602994
H          -10.96053953363718        2.81909526058061       25.83528832252816
H          -11.17536829755528        3.08216111331770       24.10804928660139
