32
 energy: -33.019515537576 gnorm: 0.000485786188 xtb: 6.7.1 (edcfbbe)
C            1.36764876514414       -0.21202395821352        0.29630562667213
C            0.79344790458697        0.59377600561939        1.45561763274774
C            0.91566970015537        2.11028561472419        1.26974904453881
C            0.29854049086849        2.72305855472064        0.00847595496731
N           -1.18041613699364        2.95751466022535       -0.03214693571479
C           -1.66804681450604        3.69048292007811        1.17895649996753
C           -1.03522270637008        5.04844450018082        1.43942713690680
C           -1.50202331686762        3.77521432421353       -1.24678739516757
C           -1.24293679732559        3.10486409154537       -2.58741610926971
C           -1.92088440956408        1.68343328948901       -0.10084838141257
H            0.77004195019989       -0.12003694109539       -0.60807916458749
H            1.39649066831730       -1.26481965324601        0.56112938015224
H            2.38325175799521        0.10669304902385        0.07555322875694
H           -0.23687691787496        0.28896754570843        1.64013236581987
H            1.35631833796287        0.34472811387180        2.35668995124179
H            0.56053223179310        2.61352628896790        2.16843213645198
H            1.98305565713580        2.33260006269104        1.19406854072459
H            0.76862898192802        3.69386339678156       -0.15545696080426
H            0.54896821267523        2.08433982077480       -0.83760373446063
H           -2.74733549496107        3.81441388920116        1.06630336129541
H           -1.49825986023614        3.04529484010364        2.04178848120482
H           -1.26214407197911        5.77062381525569        0.66110085729091
H           -1.45177040166717        5.43392500353041        2.36692691784508
H            0.04111922678470        4.98622675889297        1.56745501338128
H           -2.55931924517835        4.04179337618492       -1.18456681237243
H           -0.91512281456245        4.69246365764609       -1.19612622300490
H           -1.85673900032742        2.22227578582509       -2.73836546872231
H           -1.50565694901187        3.81732007491409       -3.36575266149644
H           -0.19811881016823        2.84566344157309       -2.72920942519551
H           -1.48440632016846        1.02821467346301       -0.84949790414768
H           -1.89231066486492        1.17746209084993        0.86014078436325
H           -2.96177315291971        1.87265090649899       -0.35841573797263
