15
 energy: -19.426843793873 gnorm: 0.000780296027 xtb: 6.7.1 (edcfbbe)
C           -2.37593033740359       -0.00840970509380        0.04807631004582
N           -0.93097760174044        0.01362220610630        0.03161325633567
C           -0.26689583987662       -1.15000159918020        0.02861888679348
C            1.11124306801603       -1.18638318444690        0.01678302592759
C            1.82188078255969        0.00854684153460        0.00792350428237
C            1.11516427852275        1.20344974931437        0.01180706995911
C           -0.26574018983807        1.17252298427003        0.02383290903773
H           -2.75387941836658       -0.57419871557978       -0.80456021450672
H           -2.73404382814788       -0.48748713486974        0.96087865321662
H           -2.77661961240134        1.00176339414502        0.00362579423767
H           -0.85817656530314       -2.05446464011169        0.03594077395689
H            1.62000287793741       -2.13719079300379        0.01436656902242
H            2.90061990138053        0.00685523142636       -0.00160980618616
H            1.62585290655212        2.15322720571179        0.00543814462187
H           -0.84731042189087        2.08295815977743        0.02725512325566
