26
 energy: -32.370648915009 gnorm: 0.000189050451 xtb: 6.7.1 (edcfbbe)
C            1.23269990922674        0.31715181783162        0.03078974849623
C            0.53074772240944       -1.02661505113801        0.18717534080290
C            0.85873354029260       -1.73125821635537        1.50445384653706
C            0.31066544556683       -1.01400702914623        2.74539852453400
N           -1.13205803556751       -0.94814593740286        2.71239208417927
C           -1.87475420747478        0.11207166965748        2.29129769112325
C           -3.18248850348690       -0.26038892020869        2.34286714740154
N           -3.22198708390363       -1.55166765750861        2.78908796269148
C           -1.96208080093037       -1.94417196229972        3.00424457220967
C           -4.40595705956515       -2.28735716190658        2.96670373008708
C           -4.46273829499860       -3.56774244697680        3.29062955171492
H            0.90657305529125        1.04030042072319        0.77465779061878
H            1.02099494134626        0.73217171803709       -0.95043049933997
H            2.30880108625896        0.19559192466199        0.12051957621466
H           -0.55026645502276       -0.89542187038488        0.08775709344091
H            0.84967190088764       -1.67979363610538       -0.62577858549852
H            0.46440210576738       -2.74921223345257        1.47963173265920
H            1.94120556686152       -1.79659862891387        1.61502630446735
H            0.61706518795704       -1.55120949211527        3.64546040621525
H            0.69838446469718        0.00362175435381        2.79452458310692
H           -1.43806848447171        1.04360587924562        1.99426421378434
H           -4.06566599982290        0.29273936680909        2.09547551853972
H           -1.65931307666763       -2.90474849425530        3.37049049373191
H           -5.29393821308889       -1.69567484308005        2.80069801378787
H           -5.41621826330816       -4.05086915690671        3.40286665307351
H           -3.59584044825223       -4.18394181316053        3.45265650542084
