25
 energy: -35.407920162530 gnorm: 0.000885140624 xtb: 6.7.1 (edcfbbe)
C            1.88575477594268        0.32101806313035        0.36303867431406
C            0.60052060837396       -0.24621688351772        0.94959867010254
C            0.27379958330186        0.32934709732723        2.33619045884389
N            0.00655451865496        1.75404812154415        2.24611514496875
C           -1.19854518278580        2.16896441345634        1.83945328018136
C           -1.46039339835694        3.50752831435467        1.62939778774724
C           -0.44846237446901        4.43438006660010        1.83190400861157
C            0.79357789816992        3.99146617037183        2.28649808578780
C            0.98666790428385        2.63469791303998        2.47859136172652
C            1.92378972889025        4.99851465130606        2.40359461800482
O            2.04579280346043        5.84610155540146        1.55874868111881
N            2.74700512820155        4.82891101437769        3.45419513551527
H            1.81226828583365        1.39263982583430        0.18524756757679
H            2.09033676423610       -0.15622138267482       -0.59068007011318
H            2.73145339219914        0.12827693736262        1.01876746189437
H           -0.23262479459405       -0.05708627416286        0.27039224915923
H            0.69961068067501       -1.32576864258315        1.06241029052094
H           -0.60567540106910       -0.17092672734630        2.74602229101492
H            1.11736540584874        0.16581437448742        3.00875225647028
H           -1.95112742216702        1.41185131687709        1.67444679233062
H           -2.43828980085559        3.81602411198393        1.29609945164405
H           -0.59492326203534        5.48619406500323        1.63681657389474
H            1.94094416664470        2.24020277239290        2.79709408968874
H            2.54019718337143        4.22270775949470        4.22839276290394
H            3.48676280824522        5.50473136593846        3.57434237609146
