81
 energy: -106.734617997657 gnorm: 0.000301430937 xtb: 6.7.1 (edcfbbe)
O            0.85118693263113        0.20293447324736        0.73803320447010
C            2.00809557591498        0.05691159358597        0.43852427103197
O            2.78943881243705       -0.72672363677012        1.20320300872071
C            4.22649316934732       -0.72533729254711        1.28102213551792
C            4.88684451056890       -1.32704205610107        0.02806057291463
C            4.75574620251013        0.67966778404180        1.57971121399185
C            4.50381888655824       -1.64234079040275        2.47748118311472
N            2.56489335995042        0.63167738622108       -0.66125839509042
C            1.79064497779022        1.46240261713298       -1.55320553296239
C            2.36750255778385        2.87592473455953       -1.66461100967551
C            3.80437890311031        2.92962872565453       -2.18994868935335
C            4.00621002037724        2.32565182601512       -3.58125502304842
C            3.22443322936393        3.02002742582500       -4.69819706229126
C            3.54441986706183        4.50526401400424       -4.88674901296484
C            5.02563567671884        4.83009337566145       -5.09244500814088
C            5.65768388261649        4.16648940067502       -6.31946924181093
C            5.22066596763402        4.79962758723436       -7.64457582445312
C            5.97803502544628        6.08333283691105       -7.98940599433456
C            7.43807825630406        5.85406889013833       -8.39399061215455
N            7.55668601538318        5.13587345252437       -9.64480273069035
C            7.52987775065128        5.72841247139734      -10.90238883599182
C            7.40473973943288        7.05083931949924      -11.29250367453945
C            7.42623303233797        7.31052119982576      -12.65107839301629
C            7.56518719140438        6.28861152580268      -13.58660333451981
C            7.68813040672754        4.96510089866693      -13.20295274621720
C            7.66873205263154        4.69837083796371      -11.84455361517705
N            7.76153295487456        3.51179202296745      -11.12758875370793
C            7.68444035268088        3.80918359563370       -9.81771849320196
N            7.70138376580104        2.89397256423709       -8.84500572158823
C            7.88332941008921        2.17287235028580      -11.67494462123077
C            9.02333146896138        1.41269658601002      -11.04043574557983
C            8.79633241716102        0.19788633561385      -10.40170444305723
C            9.84859599180576       -0.49266801257760       -9.82229589484240
C           11.12932469779877        0.03125359529666       -9.86673447024033
C           11.35976233677267        1.24387454705801      -10.49709947158536
C           10.31256451551548        1.93225412623580      -11.08311167057655
H            5.14189634647799       -0.57641782765822       -0.71935165705085
H            5.81109356498088       -1.82328650650697        0.31294685367659
H            4.22724706453530       -2.06880778783764       -0.41670459819439
H            4.31487750043559        1.04618995782639        2.50332045011499
H            5.83599374281351        0.64511104598176        1.69618157735714
H            4.51055943012759        1.38205686581171        0.78659554754578
H            3.95625321870534       -1.28499095514247        3.34441852074502
H            4.16589146277623       -2.65005100390864        2.25386694747127
H            5.56547102440199       -1.65969967116238        2.70665822764761
H            3.47725733921763        0.34906811445523       -0.96988416830538
H            1.72942110632769        0.99228892057263       -2.54083681557274
H            0.78446816939484        1.50986687101080       -1.13146913344226
H            1.71340318576580        3.46212771240986       -2.31051150101258
H            2.34819309866544        3.33364154614941       -0.67386631432612
H            4.12715449008623        3.97228655600428       -2.19784066944695
H            4.46049726909621        2.40434703580304       -1.49112012914046
H            5.07366540859902        2.34996505665590       -3.81503785955614
H            3.71094486269923        1.27448950979757       -3.56622541367318
H            3.41101113288689        2.48460874424060       -5.63268235301651
H            2.15653617241671        2.93016449193185       -4.49514372642059
H            2.96612649150253        4.87067957410624       -5.73825498379465
H            3.20035601374386        5.05779122180157       -4.01164552782576
H            5.13216063090847        5.91390896169456       -5.17389304050166
H            5.58157593169688        4.52103001140955       -4.20652620332548
H            6.74495090308551        4.23195218616576       -6.21135371395403
H            5.39374744793710        3.10862783658440       -6.32321576423969
H            5.33281644734076        4.08232106778760       -8.46136146725800
H            4.15925319792248        5.03736588567707       -7.58107901483051
H            5.46824091865207        6.59132854684157       -8.80992404450246
H            5.97100906150116        6.75253761814082       -7.12912596796723
H            7.93593409513362        6.81693958346670       -8.52689728539454
H            7.97886248812746        5.30633446086933       -7.61933698961100
H            7.29287453836579        7.84742859358218      -10.57570339041799
H            7.33130867785806        8.32818659828891      -12.99376064402905
H            7.57523327632275        6.53424308555221      -14.63620480637406
H            7.79177130256239        4.18402925731715      -13.93815881880301
H            7.64138347431112        3.17886129777083       -7.88199486381448
H            8.00807416626256        1.95559213854705       -9.05965780835956
H            6.93928549562832        1.63562803382117      -11.53208507716729
H            8.05736029443984        2.27864394697345      -12.74739091641563
H            7.79982950624217       -0.22122895325976      -10.37857246171438
H            9.66550428471480       -1.44025086923707       -9.34031862175651
H           11.94853585963876       -0.50807954895894       -9.41831038907317
H           12.35843795910345        1.64920872882627      -10.54108546415024
H           10.49526203234368        2.87186574819086      -11.58470808780408
