62
 energy: -82.678228579998 gnorm: 0.000720063459 xtb: 6.7.1 (edcfbbe)
C            4.73693149189735        1.11094452448618       -1.26089646314027
O            3.59861505833904        0.28531921008259       -1.35463628992524
C            3.38598744693384       -0.22115822378315       -2.65494909495062
C            2.25669363868671       -1.25228801195567       -2.63070787912422
O            0.96355948117554       -0.68436431252803       -2.55704637755741
C            0.63720061919557       -0.15740938943926       -1.28520429980609
C           -0.55179401566271        0.79794595388075       -1.36438142454458
N           -1.85225668177324        0.22949929276342       -1.81915169755229
C           -2.21649793804435       -0.99733817349108       -1.04392399707970
C           -2.32927101916279       -0.85718761320172        0.47288435628259
O           -3.55612899590420       -0.23380034035626        0.80736394527110
C           -3.84860368573496       -0.23772941733820        2.19193338914034
C           -4.22549218443327       -1.61333483627626        2.74411419136622
O           -3.05990157214472       -2.39221245128073        2.91389708900854
C           -3.29614092140249       -3.60127990857970        3.59958793919175
C           -2.96686801310445        1.24150700515275       -1.67078791830907
C           -2.61153722478274        2.69979163453303       -1.39210509736896
O           -1.84346746937547        3.25212389816889       -2.44329536941984
C           -1.65735822151630        4.65066135106655       -2.35289728485301
C           -2.91119857406700        5.46757771937216       -2.66737556192311
O           -3.77937608350223        5.44981635534165       -1.55531747604124
C           -4.86456533837463        6.33941787478931       -1.68532990065697
C           -1.76116051875971       -0.21208170929139       -3.25203693233592
C           -1.31255051997532        0.85466088656161       -4.23648313058712
H            4.80868891630275        1.42048525332354       -0.22082410150153
H            4.63890404860474        1.99379438501067       -1.90286240185457
H            5.64280303697412        0.56505488477678       -1.54418696036451
H            3.13015534840494        0.59583469635708       -3.34669772900314
H            4.29888883554754       -0.71101513872653       -3.02163107684181
H            2.26455283515960       -1.81209057757647       -3.56761854315048
H            2.41763005401376       -1.93936355825851       -1.79115807003903
H            0.45565395379130       -0.98072589590493       -0.57808631765062
H            1.48342132586210        0.42331551008504       -0.89878836333877
H           -0.69437704206214        1.20815867622973       -0.36556134596552
H           -0.31444817901471        1.61522255090798       -2.04568757455456
H           -3.18615944453479       -1.34057436423801       -1.41124383744588
H           -1.47410338022240       -1.76272540884494       -1.26846512602670
H           -2.29924365974431       -1.86426248606979        0.90572100907117
H           -1.49494904097067       -0.29135772217172        0.90851458274989
H           -2.99355492174135        0.15149154121629        2.75881082399902
H           -4.69833494573837        0.43843180012162        2.29889195195303
H           -4.72965906995589       -1.47521332621490        3.71069131001036
H           -4.92497876051865       -2.11294640757079        2.05635054470891
H           -3.69918618310112       -3.41320457966923        4.59995356762538
H           -3.99648512584276       -4.23867015257764        3.04819151773585
H           -2.33384764226525       -4.10148374671216        3.68282667216055
H           -3.55553337644804        1.21088761418759       -2.58733714477281
H           -3.59333026941696        0.91924491468878       -0.83805769084251
H           -3.56204441369442        3.23959600043096       -1.29966272254625
H           -2.08090610892496        2.82285878505038       -0.43776733221953
H           -1.30038817732848        4.91964938890694       -1.35106104326050
H           -0.88631985729030        4.87895651971145       -3.09093814524469
H           -2.60856139364651        6.50001804796430       -2.89279812217452
H           -3.41436846680724        5.05387939575029       -3.55493519550889
H           -5.49160180432233        6.07667349790115       -2.54504776337373
H           -5.44489789033929        6.25373262403884       -0.76943230745778
H           -4.51523467029950        7.37079320953525       -1.80316354798734
H           -1.04883875168301       -1.03541585048343       -3.29683345408964
H           -2.74934319634932       -0.58502064801343       -3.52942575351834
H           -0.23817519210483        0.99881139511709       -4.18454034628977
H           -1.55062092346511        0.51137803115610       -5.23963755225284
H           -1.80727522542843        1.80604982185744       -4.07092712639861
