39
 energy: -43.410177678634 gnorm: 0.000435147988 xtb: 6.7.1 (edcfbbe)
C            0.58624051947972        0.06431070593199        0.21584446706502
C            0.32532271026857        0.35002197838876       -1.25828102659932
C            1.16491047580550       -0.51958410901588       -2.19701538440411
C            0.93693344834021       -2.02794097105003       -2.06609882549724
C           -0.51883578888437       -2.50546890307807       -2.23040060632275
C           -1.21461215648417       -2.03326355445944       -3.53549558409869
N           -1.12806347623509       -2.91239815608696       -4.73899305934831
C           -2.06576338175864       -4.04618594085658       -4.61337517023767
C           -1.51230642042268       -2.11367476337299       -5.91927486622527
C            0.23384576128011       -3.43463328142456       -4.93977636820455
O           -0.61833078214069       -3.91424729827348       -2.14200959348181
C           -0.55998813136015       -4.46663095065539       -0.83081575492027
C           -0.96326054090143       -5.92899591044759       -0.91659702726394
H            0.25728229470885       -0.93361921958924        0.49580728861941
H            0.04975077699479        0.77888357446032        0.83384181929785
H            1.64672038476388        0.15336721967693        0.43732375576928
H           -0.73871167687745        0.22703003211698       -1.47438754992662
H            0.57601537487414        1.39294698626094       -1.46017803121813
H            0.99929475183027       -0.19342025295137       -3.22780152783801
H            2.21886819502659       -0.33641934789858       -1.98039119478297
H            1.58571960014502       -2.54810521974517       -2.77092059691935
H            1.25395007297438       -2.33075051786660       -1.06778942577932
H           -1.10317194972857       -2.05822596923997       -1.41065960513629
H           -2.27788247391881       -1.89676011506195       -3.32968620695186
H           -0.79171978626120       -1.06150863344670       -3.79139399233068
H           -3.08989494734843       -3.68222572497347       -4.55974767560143
H           -1.97168942604334       -4.70312988873704       -5.47554726374988
H           -1.83314641428413       -4.60108605724210       -3.70692596347121
H           -0.78823203589174       -1.31981197681363       -6.09561462311912
H           -1.54992351257374       -2.75026744617925       -6.80178897771998
H           -2.49380837515235       -1.66593220253089       -5.77221685080709
H            0.94324108869820       -2.61238097689889       -5.00634588345251
H            0.49534497349060       -4.08225994411385       -4.10557624193815
H            0.27680368565847       -4.00958187138371       -5.86324358110321
H            0.45683700395613       -4.37980635994731       -0.43027834731824
H           -1.24444326981033       -3.91527238290353       -0.17260228599165
H           -0.29813031769159       -6.46423983127461       -1.58932803294759
H           -0.89948621423139       -6.37932988946574        0.06879187074719
H           -1.98403004029429       -6.02431282984901       -1.27892207679097
