70
 energy: -77.212658723183 gnorm: 0.000164611727 xtb: 6.7.1 (edcfbbe)
C            1.47279964583181        0.25929264995596        0.80367489150071
C            0.19918802475539        0.12189239351303       -0.02228996386353
C            0.25314445126727       -1.02659780079995       -1.03130198838021
C            0.43932922193832       -2.41483241399468       -0.41622303163080
C           -0.65279984895745       -2.83229995005296        0.57037049647424
C           -2.07437014802036       -2.86216344867265        0.00152086535046
C           -2.25576094051800       -3.74976731469204       -1.23058484800881
C           -2.00615756490813       -5.24562272047133       -0.98517343840080
C           -3.25113187142281       -5.92226854791772       -0.41483341351779
N           -3.06257042903219       -7.33899542915987        0.03249632487051
C           -2.43652670437343       -7.37681091379727        1.40567994078046
O           -3.42085410275733       -7.12327945340473        2.33999248220552
C           -3.08198205018921       -6.41225960300190        3.55503781286749
C           -2.83441271916165       -4.93925112251904        3.22057823595784
C           -2.59374344572691       -4.10427522443776        4.47501896275290
C           -2.41894085841130       -2.62918835748076        4.13232054710335
C           -1.36287749587058       -4.67548803141568        5.16726282571228
C           -1.59985620150967       -6.12874619207029        5.55781378796463
C           -1.95626242312875       -7.05979212154850        4.38409936816038
C           -2.35425475010797       -8.44131808543207        4.96384310214253
C           -2.70695861791836       -9.49087800133643        3.90907553692588
C           -1.24005582514738       -9.01732253336151        5.84286997781526
C           -4.38474590685375       -7.99588570209139        0.10062213881541
C           -2.21743669998000       -8.09690588266045       -0.90694488837019
H            1.61077803905748       -0.59198048697711        1.46602090885306
H            1.42696986317286        1.15630466487303        1.41609215285198
H            2.34125606746602        0.33466681718463        0.15339325624932
H           -0.65659820445333       -0.00300321763424        0.64418705355074
H            0.04101045235207        1.04801695941197       -0.57876250881344
H           -0.66003139865218       -1.01072068907309       -1.63018412012511
H            1.08855614451093       -0.84952008654389       -1.71241244747917
H            0.50410930270114       -3.14656291778739       -1.22519855832452
H            1.39486084443196       -2.44248811223482        0.11002434474188
H           -0.38761744624100       -3.81521900875711        0.97296046063857
H           -0.64730388226880       -2.13858841274146        1.41166657919183
H           -2.75913435944545       -3.17614285094386        0.79238400410679
H           -2.35736435027788       -1.84727114105577       -0.27710328731253
H           -3.26684491745753       -3.61535462468767       -1.61993379385777
H           -1.56808834160988       -3.41165457507416       -2.00440437637597
H           -1.74348590405562       -5.70343284611863       -1.93907721629533
H           -1.15408752236891       -5.35264668528750       -0.31428378603436
H           -3.62108876985828       -5.36805972896249        0.44977435618974
H           -4.02866159309244       -5.91658837999379       -1.18127584144012
H           -2.02143383631975       -8.38744122037736        1.53424786345301
H           -1.62037028079661       -6.64608116804602        1.43323406783563
H           -4.01597645741592       -6.49033246572543        4.12148674143810
H           -3.70893917507084       -4.56095346615012        2.68404865671595
H           -1.95915112800696       -4.83818543333034        2.57378991990398
H           -3.45704541368958       -4.21042768955240        5.13974891011454
H           -3.29222113224791       -2.24611231860798        3.60936739679424
H           -2.28440587644695       -2.04773572295578        5.04000908694901
H           -1.54467435023085       -2.48319845126217        3.50256405396057
H           -0.50041199277257       -4.59861998769922        4.50058100062403
H           -1.13772335801693       -4.10042692699384        6.06581074518290
H           -2.41297317193288       -6.16614084432693        6.28568074340054
H           -0.69945195053844       -6.50360939631341        6.04039118815563
H           -1.07040465813713       -7.17923846891194        3.74854028949344
H           -3.24169546995249       -8.28725817490838        5.58716247558238
H           -1.84119806038385       -9.71215610821498        3.28590621234471
H           -2.99641724375466      -10.41311645823412        4.40667486397655
H           -3.54117648272136       -9.17428925499192        3.29083007825612
H           -1.12732139842514       -8.46686351105165        6.77078778662623
H           -1.47398193859997      -10.04668115481076        6.10169408790556
H           -0.28967410029092       -9.01041942352472        5.31293527558924
H           -4.81053584634539       -8.07055151920288       -0.89739051929760
H           -4.27831998224673       -8.99309311781019        0.52302475940896
H           -5.04829522192151       -7.42243393696617        0.74339322118193
H           -2.60254367692057       -7.98547581676600       -1.91881903047097
H           -1.18963084093980       -7.74316070067376       -0.87439936973253
H           -2.23134372006629       -9.15375813317929       -0.64521341079390
