55
 energy: -63.283129144077 gnorm: 0.000406397664 xtb: 6.7.1 (edcfbbe)
C            2.24423188102930       -0.07986921230304       -1.13820351241937
C            1.02524764855490        0.58031003514807       -1.77142667065753
C            0.47818110900205       -0.18516194182127       -2.97673948131974
C           -0.01328221648574       -1.60222075463999       -2.67229551292788
C           -1.13268700919137       -1.68535927921733       -1.63191837973325
C           -2.40690343615925       -0.91391725099513       -1.98458285015861
C           -3.06353061498566       -1.31620782675217       -3.30680895754055
C           -3.49618410020604       -2.78073249738078       -3.33088325838151
C           -4.34259900075270       -3.14901686446524       -4.55225755665957
C           -3.68769633715193       -2.88529021851856       -5.91131692704706
C           -2.36297737210414       -3.60306907273154       -6.16445145128754
O           -2.51376230802693       -5.01665725491385       -6.36499072230222
C           -2.49520557734737       -5.83951091118067       -5.26963438457647
N           -1.30795015336622       -6.79103030494219       -5.35709786423824
C           -0.02506302993057       -6.03694294843900       -5.43086662166869
C            0.40673136318582       -5.30274112198128       -4.15898726090535
O            0.86310374945309       -6.24355642574698       -3.21857600881446
C           -1.33139538324547       -7.71014163929309       -4.20828262427177
C           -1.45361730458325       -7.56471521025626       -6.60599384618493
H            1.98579701810000       -1.03117488084133       -0.67902081821320
H            2.65741991179266        0.56276107655132       -0.36517040531123
H            3.01631140132888       -0.25264032005062       -1.88519323403277
H            0.24383837477482        0.69955236365528       -1.01980288340067
H            1.30378090049368        1.58055179509424       -2.10951548004606
H           -0.33756958487593        0.39131917643800       -3.41633197813211
H            1.26735287249350       -0.25631340273128       -3.73030449674600
H           -0.35174068185938       -2.04974849048438       -3.61236591791938
H            0.82907733105166       -2.20059202879914       -2.31658477173776
H           -1.38060820047717       -2.73806027110226       -1.46767108484504
H           -0.75923702319122       -1.30236572071190       -0.68179290029740
H           -3.12589580695314       -1.06189665791685       -1.17563089183069
H           -2.17932101432822        0.15169981388065       -2.02358486675334
H           -3.94488046361085       -0.68954307825071       -3.45539589652483
H           -2.37522379540995       -1.11457250962911       -4.12863227753987
H           -2.60933570191497       -3.41786959068223       -3.27542720677225
H           -4.08998539106653       -2.98473891450627       -2.43715714768122
H           -4.63487335062042       -4.20061226529847       -4.48469325225585
H           -5.26208011874532       -2.56262978657105       -4.51873169911810
H           -4.38490717595715       -3.18047513491878       -6.69695821590164
H           -3.50182912324859       -1.81700041660120       -6.02050045613358
H           -1.93970248348051       -3.24266407358203       -7.10495313526148
H           -1.64801013267295       -3.40762181562655       -5.35969176135321
H           -2.42582392481982       -5.29785048406040       -4.32156344441411
H           -3.38812869143172       -6.47750769955262       -5.25871039153598
H            0.76579999263952       -6.75223200240335       -5.66587102589648
H           -0.11595362171949       -5.32447317997804       -6.25233976434183
H            1.21064109657908       -4.61634767325975       -4.45160111135875
H           -0.40777354345403       -4.69904181138350       -3.73405293894767
H            1.41085863811309       -5.81570542481212       -2.55278512690889
H           -2.24307339744289       -8.30381178068954       -4.22416474398833
H           -0.46993822384151       -8.37307436741053       -4.25315507426540
H           -1.27726521806659       -7.16017105068315       -3.27244601865565
H           -2.36627786285855       -8.15628028281179       -6.56925978773645
H           -1.51846673308679       -6.88122227473391       -7.45083094966092
H           -0.60543817991575       -8.23268613509657       -6.73768495343453
