49
 energy: -72.902013596490 gnorm: 0.000382383640 xtb: 6.7.1 (edcfbbe)
O            5.27617758300463       -1.27557531774198       -0.45348314390794
C            5.41428288460207       -0.13250287880576       -0.08798329891841
C            5.63404221091356        0.98543766746952       -1.00871282620382
C            6.18636710727843        0.68387619007313       -2.25900408802260
C            6.42224740546705        1.68510577595787       -3.17908890006133
C            6.08887608149243        2.99632565687141       -2.87475117578983
C            5.51549119957823        3.30143820981600       -1.64887719660802
C            5.29481719393459        2.30820010416646       -0.71455567658406
C            5.36920115266853        0.16710774973140        1.43742155995237
N            4.00619028241268        0.25409381870007        1.90461992616439
C            3.38403149090114        1.39648080613364        2.37898911303058
C            3.85289043181557        2.67488326242983        2.65628750904210
C            2.94083583011563        3.59013708216580        3.14312933416519
C            1.60284795276149        3.25502648993027        3.35914299448582
C            1.12997235628960        1.98233808313619        3.11231651397395
C            2.04185215013372        1.05811150158852        2.62223116592270
N            1.92118466927741       -0.28465399472581        2.31130304425740
C            3.11054648322994       -0.74441903549477        1.89551710844951
C            3.34196353879937       -2.15307682837108        1.54874843505988
N            0.79862908674795       -1.08486947432584        2.38548768040355
C            0.01358155340176       -1.13508290443617        1.14311439093599
C           -1.13099364058826       -2.08799091647142        1.35277578394752
C           -2.34215897547072       -1.62717817670446        1.85244734762225
C           -3.38961292767417       -2.50564087245958        2.06664176938588
C           -3.23202471229150       -3.85243309545164        1.78709223213821
C           -2.02519560982474       -4.31859559963499        1.29310378259166
C           -0.97756980285075       -3.44066975315045        1.07951857058347
H            6.43700539233419       -0.34290749687893       -2.47795327410243
H            6.86170891970772        1.44526036666154       -4.13454687527208
H            6.26844597048914        3.78054513592671       -3.59376620444602
H            5.23960363882662        4.31989165902879       -1.42183198920004
H            4.81930634032938        2.56274700353268        0.21987469116139
H            5.87227719009916       -0.66688088933669        1.93755599029656
H            5.88813800249468        1.09343246893339        1.67501176087764
H            4.88694804019049        2.95002159317963        2.52359709515099
H            3.27208367499683        4.59076518397676        3.37006111654281
H            0.92869751752286        4.00603536125001        3.73793497114847
H            0.10002287527699        1.72158625937174        3.29651041244722
H            2.54091693388856       -2.75499835962635        1.97355674951958
H            3.36399150202811       -2.29970087947233        0.46814808977184
H            4.30619084604317       -2.48846403267850        1.92629643310940
H            0.21095975715276       -0.79433273262373        3.16359299274713
H           -0.35977962139390       -0.13996777333118        0.86268064931069
H            0.67279501524989       -1.49962966095722        0.35214254583631
H           -2.47471414062018       -0.57439327056766        2.06104022067151
H           -4.32961788868796       -2.13749656784948        2.44799795356794
H           -4.04996070406457       -4.53678015685014        1.95011565538034
H           -1.90032859053513       -5.36715932009114        1.07101428830459
H           -0.03917364742275       -3.80561744193184        0.68866477118953
