47
 energy: -74.363389003649 gnorm: 0.000278150101 xtb: 6.7.1 (edcfbbe)
C            0.80703558395156       -0.10416913228392        0.23281434040514
C            0.25305294103412        1.29560403937602        0.47404153190536
C            0.97261886385850        2.33109193794230       -0.38996477601359
C            2.37673049692383        2.68376943968805        0.09847197263362
O            3.13175818093545        2.02870565744016        0.74196822129928
O            2.65933223170217        3.96186030629177       -0.27513603249921
C            1.57366217417028        4.49783149315791       -1.01448605929554
C            0.34858924533352        3.73109718517170       -0.50641710923832
C           -0.10956408478701        4.22891590961717        0.88405539572551
C           -0.26737563538708        5.70308188181834        0.95725452934958
C           -1.27970527700776        6.50579855608380        0.50812431068443
N           -0.95079432807632        7.79657942204087        0.79407634427749
C            0.22706195839642        7.78926223630537        1.41263436300321
N            0.66761715719839        6.53814651447562        1.51831405593537
C            1.89981627790042        6.13922375423826        2.14989736727123
C           -1.80192005818258        8.94377809362692        0.58550995629311
C           -2.83826994103992        9.06717277103484        1.68577331464963
C           -4.11257186077444        9.55177973228744        1.40736365707788
C           -5.05195474035033        9.69040430788124        2.41723195452274
C           -4.74129278394012        9.33291834439130        3.71835725144564
C           -3.47239281227897        8.84260955017124        3.98575255416134
C           -2.51931890483148        8.71693040748501        2.98629422089131
N           -3.10892756894541        8.43347715845277        5.33062947619567
O           -3.90373152645411        8.63883002676504        6.21112461320833
O           -2.02626230410258        7.90174155595798        5.46016269525875
H            0.66324102257726       -0.40409688939019       -0.80252752195745
H            0.29693926042543       -0.82072514344063        0.87013015611050
H            1.86798765981505       -0.13269584059399        0.46225504531832
H           -0.81155763675500        1.31361994158915        0.22948367704079
H            0.36772454031413        1.54060085937277        1.53072827983618
H            1.08845192148710        1.91674947947928       -1.39917841914364
H            1.73195326217323        4.30884210144348       -2.08247170856646
H            1.54935453519709        5.57671147348110       -0.85562234370128
H           -0.47736264849930        3.77866497168214       -1.21532908501640
H           -1.06289249216787        3.75568745314694        1.12107919903874
H            0.61982437002452        3.91175681531790        1.62961622443203
H           -2.19469903013421        6.24261951732094        0.01869630291019
H            0.74832934712301        8.65926783699589        1.76333504992143
H            2.48362264962682        7.02344823874245        2.39447867118095
H            1.68989220698636        5.59414007429580        3.07182670288178
H            2.48656447312657        5.49876222798718        1.48919133964712
H           -1.17792417907618        9.84251341143576        0.56549343814168
H           -2.29792974510578        8.84525900486814       -0.38275576183951
H           -4.37088514319438        9.82971704664514        0.39692924329527
H           -6.03279007241653       10.07326577143581        2.18554944996991
H           -5.45765986648825        9.42311858381817        4.52016500007194
H           -1.54351772032206        8.34453191487335        3.26180891128652
