50
 energy: -67.380491303798 gnorm: 0.000434616699 xtb: 6.7.1 (edcfbbe)
Br          -0.20868562583314        2.95545908354676        1.40158937107366
C            1.23679292045328        1.81333281158208        0.93456047861657
C            2.18351746642407        1.47505921758627        1.88997597078724
C            3.25786789105677        0.67951673962346        1.53221476455188
C            3.38508164620634        0.21115565974465        0.23119953725787
C            2.41279526862123        0.53842933822586       -0.70985832504894
C            1.34143118756710        1.33901104179008       -0.36584562659769
C            4.58584956641107       -0.59561444871148       -0.19835410744221
N            5.32150652524203        0.13659838637682       -1.21313852387239
C            5.47429698495891        1.45799608934611       -1.22748005703094
N            6.12645901075762        1.86091021023501       -2.30894557662258
C            6.41956234781007        0.74287124120869       -3.06227005121270
C            5.91046969650513       -0.36544209705658       -2.35464962697046
C            6.05004882126501       -1.65913534878552       -2.84312306556470
C            6.70326219096930       -1.80495954656034       -4.04905911382067
C            7.20598289478403       -0.70597403612673       -4.75249696998857
C            7.07588164310881        0.58201569080067       -4.27702513079254
C            6.30036038085660        3.23770578391250       -2.70339146814210
C            5.12526804686876        3.69140018154718       -3.57696555182402
C            3.78595173106987        3.68908607509645       -2.84456603617074
Si           3.52985888305884        5.03094518561667       -1.47209070662684
C            4.48395183927583        6.60636414328657       -1.94737276774642
C            1.65881995317401        5.33232248590282       -1.35592209094506
C            4.14677612669257        4.41113288887268        0.23288432125317
H            2.08645110586092        1.83928048603757        2.90023146794878
H            3.99825509398347        0.42416738360093        2.27498594658178
H            2.49142932429127        0.16281174803708       -1.72004554380229
H            0.59116077914089        1.59288286908347       -1.09771910651129
H            5.24025669539065       -0.79949140577786        0.65485145960086
H            4.27525978718667       -1.54888431268822       -0.63276488845268
H            5.11502224710068        2.11874010363563       -0.46138293489888
H            5.67262399924187       -2.51352663988731       -2.30560495548006
H            6.83260223125967       -2.79247476037763       -4.46205124572267
H            7.70910554217280       -0.87373675270276       -5.69119130413548
H            7.46660636310799        1.42396756683883       -4.82428435651462
H            6.35233323026726        3.85144927784647       -1.80382383921625
H            7.23919620371274        3.32415528257704       -3.25330342661780
H            5.34335887927221        4.69845176226196       -3.92891253200579
H            5.07136437151414        3.03811996605165       -4.45245061811808
H            3.01510610312197        3.86354655512953       -3.59502466628431
H            3.58276505735313        2.69108048905719       -2.44809101172049
H            4.21614612868846        6.94797395278365       -2.94254539722443
H            4.24687026831543        7.41136913521054       -1.25911814195151
H            5.56161664827065        6.47155291502031       -1.92297563352684
H            1.10883471396027        4.40939458415312       -1.20038349155160
H            1.41845774717047        5.99271907614961       -0.52901030273715
H            1.27307119978791        5.79256875981490       -2.26029182712261
H            3.68417198941054        3.46977031374206        0.51958235775992
H            5.22674088961021        4.30487019552619        0.29704496409408
H            3.86529600346621        5.13591467191899        0.99015938061037
