24
 energy: -44.583946284461 gnorm: 0.000440312542 xtb: 6.7.1 (edcfbbe)
Cl          -2.84279557669746        0.45383714217096       -0.21252884801525
C           -1.26967301363855       -0.21932623190906       -0.10765993226621
C           -1.06771317468702       -1.56970036658141       -0.36925607926621
C            0.20566952209128       -2.09642447031048       -0.27936159180887
C            1.29485264683213       -1.30535894538657        0.07016528696719
C            1.07183857637173        0.04741545510843        0.32519062916806
C           -0.19791531939128        0.59228329477630        0.24312025543142
Cl           2.38071357815322        1.08544370862196        0.77400059459999
C            2.67991907902571       -1.90157852596419        0.15429862044103
N            3.37804610868643       -1.74093776392639       -1.10837350317331
C            4.14965044502693       -0.68364589022388       -1.46363391910291
C            4.55717038390307       -0.88039226707944       -2.75218620664871
N            4.01472678912833       -2.05946358464989       -3.14679968461020
C            3.30153535482357       -2.57138951613972       -2.14785557012555
O            4.14182584293057       -2.67198336566542       -4.34407807702705
H           -1.90262412971178       -2.19758054724102       -0.63336060787319
H            0.35370300641312       -3.14892552757927       -0.46839807653012
H           -0.35767212918780        1.63800620201612        0.45195151119646
H            3.25730038946035       -1.39323849050629        0.92865379382514
H            2.61505450441119       -2.96634656488859        0.38321656395123
H            4.34976854294780        0.13069687859990       -0.79620491691558
H            5.17857142151134       -0.27541514334101       -3.38197311062867
H            2.77032740387527       -3.50156510351988       -2.19700321540276
H            4.71539974772144       -2.15675037638098       -4.93680391618591
