26
 energy: -35.134582751153 gnorm: 0.000912000824 xtb: 6.7.1 (edcfbbe)
C            2.22801964532998        1.12161284587273       -0.77802493646316
C            0.80118487762464        0.80564125516076       -1.09856068995128
O            0.40223516910566       -0.26788925565008       -1.43683140794731
C           -0.19430194668819        2.00029885781700       -1.04861427335958
N           -0.01266037898446        2.89993129581156        0.06951408309071
C           -0.41994266759260        2.48047791322469        1.29539929831271
C           -1.03511339926413        1.13877751196512        1.45448657883998
C           -0.26575594657144        3.31563975400267        2.39019718475472
C            0.30420245005674        4.56767366656194        2.24029053850286
C            0.72061691286903        4.95986516635983        0.97900433281007
C            0.56071178121029        4.11738902523166       -0.10873123510782
C            1.00665077936383        4.55633127083209       -1.45944134783938
H            2.72566433398217        0.22227216755423       -0.42191080346139
H            2.34030660122954        1.92121189910298       -0.05097950762173
H            2.72864732034067        1.41388619847667       -1.70208774784360
H           -0.07841643693927        2.53427678434971       -1.99129973557240
H           -1.20281112865518        1.58069742448793       -1.03096864320309
H           -0.41332331667135        0.34952092956547        1.03554094793516
H           -1.19467079057715        0.92602893252798        2.50737557466687
H           -2.00447840690634        1.09048154493764        0.95579301330836
H           -0.59665833956009        2.97703128945510        3.35830275329792
H            0.42448511583913        5.22347905008004        3.08753971768862
H            1.17201785949346        5.92724776361500        0.83111038114317
H            1.49256854324534        5.52469035027412       -1.38588398873646
H            1.71423697967973        3.85966347101725       -1.90372209773437
H            0.15909438904505        4.66834288736502       -2.13646798950925
