37
 energy: -58.191279543408 gnorm: 0.000930112868 xtb: 6.7.1 (edcfbbe)
C            2.82649412132383       -0.81755074335174        0.16103416702186
C            1.39146595413210       -0.89132429678807        0.67265074714294
N            1.26104040606639       -0.22408640214986        1.94875465001020
C            1.28904864389314       -0.80151870544305        3.14269040402394
N            1.20791157909526        0.10159219479326        4.12043843247792
C            1.08970600680665        1.34716081274954        3.53208541328456
C            1.13976348150493        1.13721514643079        2.14069766821064
C            1.06297783184799        2.19907890092761        1.24761681273661
C            0.93890450370919        3.46281909640894        1.78666283424395
C            0.89156601605321        3.67120179374805        3.16755755668814
C            0.96530668479494        2.62430874832278        4.06359195896388
C            0.95775407533988       -0.23706868099350        5.49045494797778
C           -0.32670862860720       -1.11082925715664        5.54176476721176
O           -0.77123325476230       -1.53550479743723        4.49895418723237
C           -0.90489379051549       -1.37760673681533        6.85423197506183
C           -0.31102371321673       -0.98634168704772        8.06058734661295
C           -0.91609219428730       -1.28624322588619        9.26175454543096
C           -2.12340063988009       -1.97824274842722        9.27591928579341
C           -2.72770127110576       -2.37795308150268        8.08895900098760
C           -2.11780302085987       -2.08068999770169        6.89087529459215
Br          -2.94807697044381       -2.37594276187460       10.93098449289206
H            3.14381451863803        0.21529984959137        0.04266823781055
H            2.89195549404725       -1.31081943543821       -0.80381080289812
H            3.50716645952422       -1.31476208797342        0.84751370113963
H            0.71106161495327       -0.40946795987919       -0.03268839472832
H            1.08436323996667       -1.93112408246803        0.79826494388555
H            1.39281954758101       -1.85853564129885        3.29743083340002
H            1.09961398222782        2.04682192923506        0.18160701312930
H            0.87763857907765        4.31403974017614        1.12779115951730
H            0.79479099126056        4.67807359524517        3.54092685410114
H            0.92828640264089        2.80100939578584        5.12618089215027
H            1.78701588498813       -0.81992394876668        5.90257681564827
H            0.83016038147669        0.67604079825660        6.07023920318407
H            0.62936072888270       -0.45913694696143        8.07481184517063
H           -0.45834601098587       -0.99032951419103       10.19301272289491
H           -3.66101355773962       -2.91706733872301        8.11149259920645
H           -2.56757407742395       -2.38328192340666        5.95711588779929
