36
 energy: -37.936556607725 gnorm: 0.000415219836 xtb: 6.7.1 (edcfbbe)
C            1.19071993449443        0.10074852003793        0.23979896214099
C            0.21187141419092        1.19673302990339       -0.21095600537047
C           -1.16010770846931        0.51939234061795       -0.37258071854070
C           -0.93251430360782       -0.98888846433614       -0.19805960009793
C            0.57642097685357       -1.18891531057929       -0.31541048854766
P            1.48309974932090        0.05846181170607        2.05966812128296
C            2.31883117416427       -1.50687195169864        2.51006338800581
C            3.51976515361029       -1.85090388052890        1.63422779906527
C            2.64810607000450        1.38856076563562        2.54410227572621
C            2.45336347788446        2.74811349895122        1.88103809928592
C           -0.00233068392245        0.11344211167749        3.13428104002219
C           -0.62926501347806        1.48804552634418        3.33868653649814
H            2.19412433229534        0.26990442972258       -0.16996789027528
H            0.17184131977192        2.03382346859652        0.48321553609974
H            0.54731371606351        1.58783599871831       -1.17135791837252
H           -1.56446338610035        0.73310963028925       -1.35983791627406
H           -1.87940099854300        0.88914157524572        0.35652162080804
H           -1.46647521001716       -1.56551026900932       -0.94996213393446
H           -1.28576229735549       -1.32452145341933        0.77760366472073
H            0.85506642003663       -1.27193227729180       -1.36679725282141
H            0.90928917024599       -2.09248444637112        0.19281102233621
H            2.63419921450027       -1.39556636385991        3.55271724081570
H            1.57539834443974       -2.30847441353221        2.47522614292907
H            4.26993013249116       -1.06395044096883        1.65392773343539
H            3.98674952954737       -2.75992745778864        2.00527912960379
H            3.22807554932050       -2.02379641169468        0.60167898688403
H            2.57166816921665        1.47796711848573        3.63261765038919
H            3.65051988779874        1.01592941846380        2.31359803627517
H            1.48285273641534        3.17929548118720        2.11041850894745
H            3.21450933364941        3.43232980855409        2.24933893855099
H            2.56192292349765        2.68072967335840        0.80166156774173
H           -0.73662069976283       -0.58362704464763        2.72488956097726
H            0.33092029971861       -0.28486753637944        4.09918388822206
H           -1.00683707827789        1.90463750992012        2.40963921281009
H           -1.46881486254842        1.39508665330711        4.02399174636014
H            0.07965321255043        2.18524935138275        3.77822351429999
