37
 energy: -46.961258091885 gnorm: 0.000571929440 xtb: 6.7.1 (edcfbbe)
C            1.37853219081424       -1.00092489782493       -0.22844394907375
N            0.69827895321412       -0.19736580521862       -1.26930843302246
C            0.65521217520665        1.21495698029624       -0.81196212669744
C           -0.04141792750860        1.51230600557903        0.35508838467643
C           -0.10275237332921        2.81430781645793        0.81838058270300
C            0.53030657234847        3.83269590077565        0.12586204852573
C            1.22106680700883        3.53686279063845       -1.03442573505863
C            1.28628463612314        2.23411726077828       -1.50833219786965
C           -0.69488864032681       -0.72169998306185       -1.46265237975488
C           -1.63526854217354        0.19673108079407       -2.24963136856803
C           -1.31370910901835        0.33095842539737       -3.71681192831220
C           -1.45585481087271       -0.75910308489622       -4.56839194125742
C           -1.17249368713298       -0.63746410759203       -5.91706710794963
C           -0.74651715606297        0.57652780875747       -6.43057080743863
C           -0.61190494834330        1.66984510970837       -5.59199371797205
C           -0.89461005072716        1.54811316597147       -4.24169659168955
C            1.46263337721284       -0.37392693078361       -2.51941304762719
H            1.41102590023641       -2.04717365610189       -0.52823760249113
H            0.86178064532077       -0.92597156575965        0.72498041017248
H            2.39641533432958       -0.63696042149841       -0.09642388068924
H           -0.55368448850107        0.74615577758697        0.91452260018874
H           -0.64914534405688        3.02806912202248        1.72285418974733
H            0.48245491487383        4.84701303910720        0.48758044906886
H            1.71734499252367        4.31953420275106       -1.58630937077423
H            1.82980663164974        2.05546054874952       -2.41967765547941
H           -0.61376537198243       -1.68564374154619       -1.96827456526626
H           -1.12747074067788       -0.89170865728113       -0.47587973072095
H           -2.63217906522881       -0.24125069431617       -2.15405383236681
H           -1.66893814285516        1.18448952482886       -1.78765388354343
H           -1.80900333073626       -1.70297141956369       -4.17800795417206
H           -1.29519975642357       -1.48776957862989       -6.56960869441840
H           -0.53293695358164        0.67306817861512       -7.48323302912429
H           -0.29481615867418        2.62182720401277       -5.98900051231327
H           -0.80207692312503        2.40790745786621       -3.59203170354088
H            0.99935559945511        0.18335532606291       -3.33118592689742
H            2.49197789747378       -0.04988925257317       -2.38051694172338
H            1.46934689354775       -1.42900893011290       -2.78779204927343
