37
 energy: -46.962381883206 gnorm: 0.000170536665 xtb: 6.7.1 (edcfbbe)
C            0.47589967736270        0.03166835945739       -2.26766321571794
C            0.18230267414971        0.59322787958280       -0.88385149302737
N            0.87457061836997        1.93477166024104       -0.62018291996528
C            0.51228690163190        2.33731729067848        0.76426519805147
C           -0.44733979464061        3.30815009698439        1.01124629881756
C           -0.78685249188694        3.63263087538002        2.31541992440029
C           -0.18182440319934        2.99439383653296        3.38185841319593
C            0.76884918809765        2.01937049835396        3.13624394239201
C            1.11218797134735        1.68742758937237        1.83702913117270
C            0.46651694160877        2.95480450469392       -1.60340365838027
C            2.34414375442087        1.79531175478115       -0.72597089954106
C           -1.29870139876752        0.70104481400916       -0.59032995819772
C           -2.22024280822828        1.13183085080149       -1.53968124725598
C           -3.56402673543740        1.22792648671969       -1.22001048837559
C           -4.00765756699671        0.89004241717197        0.04655224333154
C           -3.10210988482181        0.43641254949140        0.99051821581876
C           -1.75997272168171        0.34088965555204        0.67295896259224
H            0.13076445284831        0.67468426262103       -3.07058429358700
H           -0.05565013058763       -0.91320096127888       -2.35646195462176
H            1.53356873711217       -0.17449357549225       -2.40631417973163
H            0.61290298936427       -0.08828931948740       -0.14287469112619
H           -0.95665876582434        3.82668761555764        0.21826155194701
H           -1.53416602268189        4.39055086808500        2.48737888570350
H           -0.45023516700641        3.25021016077856        4.39397004402445
H            1.24750046526996        1.50630892465454        3.95512342193028
H            1.84742811417546        0.91309063831909        1.69032217430198
H            0.86416098178265        3.92425080867894       -1.30758906147462
H            0.86627980406344        2.70223570664895       -2.58262353279163
H           -0.61681349214276        3.00753472583331       -1.67235277651650
H            2.82041309344229        2.66976030779873       -0.28472548760300
H            2.69670720361395        0.90516275491277       -0.21243406074042
H            2.64117081190009        1.72618766167781       -1.76965456387815
H           -1.91106601235987        1.37346401360184       -2.54534674430109
H           -4.26553164114387        1.56251340800447       -1.96822711047582
H           -5.05500400224955        0.96589995141389        0.29191419320105
H           -3.43920594310202        0.14988223183634        1.97411160185391
H           -1.06620539780328       -0.02626130396266        1.41524813457038
