35
 energy: -36.181917541011 gnorm: 0.000698244639 xtb: 6.7.1 (edcfbbe)
C            2.14129335252258        0.46634326760158       -0.19292923642114
C            0.86204449977832        0.64002876865691       -1.00255529920364
C            0.63793525570175       -0.49892015249957       -2.00451108789437
C            0.28361407116757       -1.84406589912398       -1.35625262751211
N           -1.15668116705692       -2.24993954416897       -1.39771088161630
C           -1.63291904497526       -2.50365575418532       -2.79403753402566
C           -1.00212494299124       -3.69332046443438       -3.53024131436752
C           -1.89573923630285       -4.93793779419505       -3.59128590388503
C           -3.09898772041858       -4.75225978536569       -4.50772154686154
C           -1.31683223837454       -3.46604758768459       -0.57794598476399
C           -1.99930890945043       -1.19210020936879       -0.80818897116501
H            2.11796129410000       -0.43035670297032        0.42170955950309
H            2.28053420239733        1.31765970449071        0.46662059012906
H            3.00316133697396        0.40547914380495       -0.85152906273085
H            0.01214496728504        0.73733304148976       -0.32598064410018
H            0.93583103460296        1.57105707016755       -1.56545761433536
H           -0.11917073261979       -0.19772092513346       -2.72785153995665
H            1.56386332519760       -0.62950857592211       -2.56637416673361
H            0.85410449091818       -2.64063411037642       -1.83323865169116
H            0.57708194706124       -1.81375220824348       -0.30554719240164
H           -2.71197816415490       -2.65795905235542       -2.74068796428482
H           -1.46000067654289       -1.58975546975514       -3.36182392807074
H           -0.79809179227584       -3.38438991246787       -4.55640822683454
H           -0.04035068291947       -3.96221585527303       -3.09453779974557
H           -1.29497876335520       -5.76250159044954       -3.97638032662186
H           -2.23609352835241       -5.22310061543218       -2.59509768126768
H           -2.77563156991756       -4.50433331870984       -5.51481841002903
H           -3.67377245789097       -5.67231656102370       -4.55516553225775
H           -3.76142444511360       -3.96379500115462       -4.15858949837474
H           -1.05542096046250       -3.25640913920170        0.45799737788547
H           -2.35158168365236       -3.80192389669526       -0.61230457958539
H           -0.67492412422625       -4.26423924175669       -0.94209854227733
H           -1.65753997258326       -0.96559680903935        0.20007192109218
H           -1.95608406860785       -0.28577397246785       -1.40691046822262
H           -3.03498289546089       -1.52394084675582       -0.75599723137460
