66
 energy: -73.211507676209 gnorm: 0.000292704644 xtb: 6.7.1 (edcfbbe)
C            0.75800344033487       -0.60003357597129        0.51161257760630
C            0.66125741571566        0.92080228360188        0.50430753404076
C            1.14238349703015        1.54942402195330       -0.80424021009472
C            0.33918342952632        1.15503385402807       -2.04556876469461
C           -1.15210393886596        1.49241105434725       -1.98740379176930
C           -1.47294592294610        2.96790760482045       -1.74095971602933
C           -0.87540054704884        3.93804358508901       -2.76147747142280
C           -1.31872676183785        3.71016108504804       -4.20765470170570
C           -2.82610925063807        3.82000651174198       -4.44768840463149
C           -3.45099390783425        5.15169825204837       -4.02602277853492
C           -2.82699069997062        6.38870312938360       -4.67473085904728
C           -2.86379853126107        6.41033717771973       -6.20477195450033
C           -4.26193108173406        6.28606222575553       -6.82378445113843
C           -5.26755738467890        7.36616667311892       -6.40992430028597
N           -5.41253818495360        8.54166099235631       -7.32247913261229
C           -6.04113628527919        8.15209167106246       -8.63175902269530
C           -7.41518024558496        7.54661922668305       -8.50792763746756
C           -8.54868779118483        8.35195412073181       -8.56586024199384
C           -9.81104219275340        7.79330985440264       -8.46976177675067
C           -9.95535142055036        6.42418439159755       -8.31934880810963
C           -8.83355337415922        5.61309959533159       -8.27992311970640
C           -7.57028074879319        6.16971116233486       -8.37697888251921
C           -6.27035126990593        9.53215270855796       -6.64515960940463
C           -4.10785308600160        9.16662621793106       -7.59589236149197
H            0.07476253905736       -1.04109069563650       -0.20968970138080
H            0.50593173681206       -0.98814775772856        1.49578626118924
H            1.76940603140900       -0.91782713865777        0.26772812706120
H           -0.36870600206538        1.22096206576585        0.70529240686445
H            1.27798859087347        1.31636713302955        1.31515059950150
H            1.13014716552857        2.63604040053150       -0.69449975757893
H            2.18178545413669        1.25398585710890       -0.96899328185262
H            0.78778244058842        1.64665027764812       -2.91196710308683
H            0.43693428892710        0.07985496864784       -2.20645545776327
H           -1.61112624433408        1.17285293206566       -2.92609956791610
H           -1.61991885881291        0.90876258308593       -1.19237395656414
H           -2.55933583511637        3.08371784627188       -1.72148732268063
H           -1.10621140604515        3.25121794028209       -0.75274978022684
H           -1.13121715550783        4.95584428413357       -2.45709367169880
H            0.21261978457336        3.86288465629278       -2.72852407400630
H           -0.79452619411920        4.42765125973046       -4.84389328038239
H           -1.00046480514377        2.71595962949082       -4.52479811049361
H           -3.01741381325959        3.64276878690221       -5.50922992393731
H           -3.33242967859473        3.02478430895275       -3.89870464854482
H           -4.52205359235164        5.11948832634291       -4.24400682357336
H           -3.35394793303548        5.25936409218296       -2.94511777230355
H           -3.32193103224930        7.27652050339649       -4.26985082768898
H           -1.78179783333530        6.45528589140113       -4.37244761732908
H           -2.36522882021795        7.31919956246610       -6.54541870689337
H           -2.27499235933723        5.57094855736768       -6.57519930814446
H           -4.16110961998527        6.23863478257405       -7.90876448488929
H           -4.67494656050747        5.32680967480530       -6.51060417869796
H           -6.26266763980580        6.92612065752701       -6.32178823414393
H           -4.98285039917265        7.74926383694496       -5.42907242871353
H           -6.09351876107955        9.05520592972846       -9.24363828743379
H           -5.37392652592177        7.44382533102661       -9.12491540246391
H           -8.45024317443680        9.41845549003451       -8.70748315896078
H          -10.68147106892301        8.42808960223360       -8.52126348550527
H          -10.93948767147272        5.98922615929178       -8.24804648997758
H           -8.94042421453819        4.54422990496568       -8.18267257860003
H           -6.70352882267393        5.52517164759259       -8.37073286420035
H           -5.79614482968948        9.87188640195260       -5.72613504897020
H           -6.42995657103662       10.39309809171148       -7.29176625396022
H           -7.23536259974556        9.09061456409149       -6.40330472497991
H           -3.61546451559930        9.42024352620557       -6.65888640938268
H           -3.47097495304045        8.49055002544335       -8.16069426565496
H           -4.24436369746459       10.07801427870684       -8.17607051920170
