34
 energy: -51.436407864913 gnorm: 0.000199166039 xtb: 6.7.1 (edcfbbe)
C            0.57252707476808       -1.42309609644160        2.02912210469637
N            0.38936336241788       -1.69411105806354        0.62931068097598
C           -0.02611109886590       -0.78827189086660       -0.30066578122276
C           -0.05809862199762       -1.42477472368550       -1.50184654537027
N            0.32339147698549       -2.71674254743335       -1.28631542530322
C            0.60473741773143       -2.85162763755032        0.01041334598873
C            0.65835949351200       -3.68685262959978       -2.28228930832768
C            2.20002424104049       -3.94069663521218       -2.20963424080858
O            2.75873020282724       -3.63224432382238       -1.18104667466834
C            2.80448755939202       -4.58428371918630       -3.36853488517016
C            2.37499202542625       -4.27143367197466       -4.64886532096337
C            2.96892223491370       -4.83895199898815       -5.77488593125318
C            3.98602543336861       -5.74557164724109       -5.63139729653741
C            4.45718092764139       -6.10543340164626       -4.35461955738681
C            3.88124942692271       -5.51489051573817       -3.19358500729962
C            4.37539866450387       -5.90850411525491       -1.93509284916536
C            5.39300885988112       -6.81928340249492       -1.83023020836008
C            5.96577603272782       -7.39160710396892       -2.97427702412746
C            5.50358494809981       -7.04206308436683       -4.21125097025492
H           -0.37249637752977       -1.11936216124921        2.48101771224674
H            1.29548998321783       -0.61750760778919        2.16107434935894
H            0.94038726475426       -2.31401816580580        2.53218418226585
H           -0.26284876476507        0.22578701743035       -0.05123300313489
H           -0.32695341824811       -1.05589320188457       -2.47031768825258
H            0.92658778897857       -3.75670515264727        0.48582411237716
H            0.17951078761816       -4.64730545075552       -2.06821944002805
H            0.33148573327869       -3.34185178263556       -3.26018598118198
H            1.60895087729891       -3.52789910346464       -4.80751329852301
H            2.62323143503381       -4.55239057494783       -6.75567054840597
H            4.44918358101423       -6.18980007770308       -6.49964384810461
H            3.95995945727240       -5.47774136227666       -1.03874465233454
H            5.76057646824549       -7.10217575268491       -0.85565419568156
H            6.76578349596408       -8.10784184500038       -2.86980431306129
H            5.92644202657937       -7.47986457505451       -5.10292249296476
