42
 energy: -72.192439483840 gnorm: 0.000587026345 xtb: 6.7.1 (edcfbbe)
C           -1.02256807192186       -0.89434023174323       -0.80403344690950
O           -0.17841507118019       -1.95196249718761       -1.26434415968025
C            0.77992056901313       -1.59740965287249       -2.10564399796997
O            0.96203707166627       -0.51842310949770       -2.57251351719318
C            1.64850457146613       -2.82445922516498       -2.49696290930758
N            1.43395505575421       -3.93721994974801       -1.61980443238365
C            0.67142480123913       -4.99340470712803       -1.87810388709259
N            0.62983863588965       -5.78308733649112       -0.80286983153828
C            1.37655832259895       -5.20389241858033        0.17581426304637
C            1.90063335094572       -4.04590690522898       -0.33402694825940
C            2.64252552921677       -2.92515511885741        0.33068569694939
O            2.41007779954476       -1.77829824047112        0.00934647461825
N            3.48520556558435       -3.25676842688973        1.32372673549452
C            4.00512276661692       -4.52138924767196        1.67300588792569
C            4.15896245130956       -4.83516293018232        3.01883308553545
C            4.68972828024528       -6.05905255476336        3.38528850634277
C            5.07260628212263       -6.97127660858446        2.41558918288566
C            4.93774597162584       -6.65020578863643        1.07473760607146
C            4.41131685124437       -5.42721852783802        0.69873312433356
C           -0.18716947083111       -6.95553567198055       -0.67848090288264
C           -1.66873307049760       -6.57665081716806       -0.93458008375133
O           -1.97449662235937       -5.56411020993409       -1.49982873852824
O           -2.46182019097642       -7.51141260101071       -0.47632534969635
C           -3.87275126677558       -7.34430671732098       -0.66034488490227
H           -1.78464477680428       -1.36394762782754       -0.18806993441716
H           -1.47424321655475       -0.37652515009219       -1.65126718344750
H           -0.43436951646398       -0.18373620295337       -0.22187577183683
H            1.39263075540058       -3.10421314585921       -3.52117155839746
H            2.68889172627612       -2.49383902430647       -2.46322881937522
H            0.16243233342768       -5.17959871215580       -2.80352763337110
H            1.49489474155494       -5.63955523014348        1.14722050902188
H            3.83894140416397       -2.46506730523913        1.85030085632369
H            3.86595065269148       -4.11865052297219        3.77102504115004
H            4.80977675587044       -6.29693040496720        4.43040661756076
H            5.49167713689724       -7.92225340579053        2.70316459062199
H            5.26222233395660       -7.34602773704559        0.31653267164925
H            4.34434898698461       -5.16181157116047       -0.34598500955635
H            0.09395962944091       -7.70691141637997       -1.42323116262310
H           -0.08115562766742       -7.39034081373557        0.31563959590469
H           -4.07464148292182       -6.82209211018948       -1.59579130185168
H           -4.29929557758509       -8.34390667541115       -0.67280749248283
H           -4.28178637021082       -6.77155344881660        0.17243851201685
