34
 energy: -39.181194054048 gnorm: 0.000333838277 xtb: 6.7.1 (edcfbbe)
C            2.06660122204463        0.07075350128257        0.26576509931540
C            0.80780012938981        0.23640482785324        1.10910537976820
C            0.48854901313726        1.70607241593949        1.41014917918905
C           -0.00016349469202        2.49719980067670        0.18906337797496
N           -1.46797995365743        2.78082121519755        0.13714121444839
C           -1.95788431675570        3.54891177611008        1.31279040647666
C           -1.12646165049630        4.74634383978071        1.83274589634114
C           -1.05932623661721        5.91011798391743        0.86892159173216
C           -2.02222089080828        6.80863787614786        0.76391508287951
O           -1.81455395005954        5.06651291853264        3.02026305022552
C           -1.74454767260588        3.53661599187132       -1.10122618080341
C           -2.22485429810562        1.51471706663342        0.07780643947760
H            1.96639142749633        0.53523017621051       -0.71277612623048
H            2.27404556602814       -0.98432999576097        0.11370133753041
H            2.92263564922391        0.51420212108565        0.76737568489263
H           -0.03090189359376       -0.24948353021851        0.60794523907162
H            0.95975609531771       -0.27603554370460        2.05964582087829
H           -0.23422354153144        1.76097165107469        2.22318862458578
H            1.40449917424074        2.17154383575480        1.77738578478169
H            0.51105442830245        3.45795765169928        0.12871813767939
H            0.24714622314367        1.93688073031280       -0.71484429586729
H           -2.95295633784422        3.93508171410246        1.08237793935367
H           -2.06363204173095        2.87845191902429        2.16746444257871
H           -0.10438695122073        4.41937653050469        2.08102213087424
H           -0.14328513400056        6.00389270036158        0.30104824209126
H           -1.94859753155396        7.64832995255018        0.09661885008591
H           -2.92005451501181        6.73870463655145        1.35678782763967
H           -1.47516923066543        5.89171392821538        3.38502248864600
H           -1.38064779783644        2.98629001021710       -1.96726158577875
H           -2.81619830668735        3.69058565371239       -1.21324314415253
H           -1.25913406744492        4.50939684813371       -1.06681195641244
H           -1.94432609979833        0.95645939238349       -0.81373176308833
H           -2.01973873995683        0.90572131647353        0.95464440930895
H           -3.29318427563839        1.72023908736851        0.03981137450161
