78
 energy: -92.156819966074 gnorm: 0.000509482681 xtb: 6.7.1 (edcfbbe)
C            1.40276254744135        0.20012464453667       -1.40946883788642
C            0.88971253631483        0.47641074015492       -0.00164970563202
C            1.47714102749606        1.74576496623746        0.61782105010491
C            1.17429316113784        3.03790340929160       -0.14472072236455
C           -0.31239151268524        3.34884181158097       -0.33117024705027
C           -1.11562773059253        3.46562020429364        0.96519105559208
C           -0.63152540148109        4.55031549732205        1.92928108458223
C           -0.64627253337119        5.97498093857023        1.36787197055563
C           -2.01762350539517        6.46737125929676        0.89068790942351
C           -3.10049123661105        6.55034114089338        1.97073432283079
O           -3.33150497642392        7.86364888887109        2.49741707730195
C           -2.28321607190159        8.49538269904686        3.10911657171936
N           -1.95324411819504        7.85907533173849        4.39759923262657
C           -2.87781525108408        7.36933676327119        5.27192424408871
C           -2.19561936813559        6.82418645792914        6.31610633421556
N           -0.86738930155093        6.99652325251393        6.06366962120168
C           -0.74449850923153        7.62198156719411        4.89671402817665
C            0.26052780796876        6.57956500653185        6.92022533814227
O            1.39489908823550        6.39472682046240        6.17840048068002
C            1.49700592640146        5.17062279841756        5.43617969876943
C            1.82054929071210        3.93438589916825        6.28138084923262
C            0.63336863359138        3.12566701280179        6.82190985082035
C           -0.41926574634567        2.72892580269312        5.78354572868523
C            0.13399276991485        2.00262164006093        4.55647121185559
C            0.81655168219874        0.66590003281815        4.84864070455430
C           -0.09386951011193       -0.40537583429835        5.45121280881198
C           -1.33079297319001       -0.74891537806026        4.61754937455705
C           -1.04175249393095       -1.18018419989868        3.17879904647115
C           -0.18448482221289       -2.43622923126530        3.08673666060183
H            1.06148201307863        0.95798769492279       -2.10982054631261
H            1.04198179893229       -0.76503030497293       -1.75655153277658
H            2.49028340506998        0.18277356906977       -1.42197172963514
H           -0.20015810953370        0.53787577062872       -0.01702269307716
H            1.15781954059303       -0.36656123098677        0.64002294385510
H            1.11332476766779        1.83485561033226        1.64418777568802
H            2.56323488045286        1.63478591227713        0.66952753413358
H            1.65827157161069        3.86633782653449        0.37899938296406
H            1.63232044905521        2.98031983664139       -1.13302039148031
H           -0.40089418327302        4.27623398662929       -0.90132750232399
H           -0.76629488340434        2.56248255425504       -0.93556893920769
H           -2.16254702298944        3.64647413347919        0.71266586046663
H           -1.07814074766182        2.51047310462582        1.49114648346465
H           -1.24930042746845        4.49933394955551        2.83186624323061
H            0.39232355616736        4.32268521687025        2.23122975594162
H           -0.24111373026272        6.64463608640914        2.13379140622471
H            0.03472064658713        6.02036115371750        0.51749693957864
H           -1.91390901142391        7.45287573875206        0.43097877585870
H           -2.36676145802774        5.79431017673707        0.10929501103087
H           -4.07334221486005        6.28998320074719        1.55290912087442
H           -2.88619083219773        5.85816368661258        2.79402000302917
H           -1.36165867843645        8.51614947578208        2.51227443370357
H           -2.61475915444231        9.52193959232621        3.30852517044874
H           -3.92922331919742        7.43913398619214        5.07688765618778
H           -2.55719149608821        6.33876904864022        7.19945083764054
H            0.19446273710589        7.89076315985336        4.45198511720088
H            0.46587677707050        7.39214584990201        7.62840907210177
H           -0.06669015169511        5.68784353722490        7.46838010520966
H            0.59103123608769        5.01936506375695        4.84005458171823
H            2.32889647664916        5.36843294327539        4.75794647101787
H            2.42740724621157        3.27264420917512        5.66359589794566
H            2.44546768297432        4.25347620657718        7.11758397002016
H            1.04278750408435        2.21785060350244        7.26619124579581
H            0.13469541383171        3.66313215096338        7.63337694613091
H           -1.15302763331089        2.08941748725543        6.27598707684785
H           -0.96098568720629        3.61897926483022        5.44270543806252
H           -0.69359492823729        1.83312377734574        3.86579344385305
H            0.85147486626462        2.65060830108119        4.04806708961312
H            1.23269373085077        0.29147032605524        3.91186929680979
H            1.65701506016471        0.82508486187443        5.52707522067725
H            0.50034938631295       -1.30910367774502        5.59268704443814
H           -0.42645377645524       -0.08751720785162        6.44207668268824
H           -1.85990330337985       -1.55971094938565        5.12326165887400
H           -2.00647521292591        0.10977758775392        4.59615428725449
H           -1.99795066644472       -1.37073665415494        2.68560536903692
H           -0.55456078749827       -0.36826496017304        2.63599226943557
H           -0.63723443537999       -3.24818203614092        3.65040081992641
H           -0.09143095974645       -2.75142321960238        2.05022646289954
H            0.81444265590982       -2.26134634330974        3.47740569025120
