73
 energy: -83.619229811845 gnorm: 0.000348992383 xtb: 6.7.1 (edcfbbe)
C            1.28360800908948       -0.49511287304238        0.80864172537733
C            1.28535041874116        0.87831483485575        1.46925835377662
C            1.64121368156995        2.01198829384246        0.50611582137289
C            0.68226814597363        2.18231666171298       -0.67406909216858
C           -0.77543707715180        2.44478795167195       -0.29143463164540
C           -1.00364702713988        3.68833867986535        0.56979755460100
C           -0.54997324385494        5.00559263842757       -0.06267246921239
C           -1.21186845348876        5.34396277028996       -1.40014253515389
C           -2.73999679159156        5.40904451937929       -1.36691431698246
C           -3.32194865293322        6.42298730280390       -0.38039910521865
C           -2.93610664090128        7.87931739779057       -0.64738323792118
C           -3.35192829118464        8.41859854353180       -2.01825918581097
C           -4.84026689667149        8.27881981091674       -2.34703772391605
C           -5.78881242654945        8.95364406779617       -1.35275254095955
C           -5.70792652981826       10.48490155919911       -1.35223111647340
C           -6.28997223511554       11.14609446835252       -2.60737700428641
N           -7.68058458742027       11.68356931427836       -2.49669399383522
C           -7.74269503221398       12.86866410494137       -1.57574926575998
C           -6.99449301751095       14.08179031776585       -2.05472154433431
C           -5.65594575309171       14.28452480931612       -1.73662087275738
C           -4.99322642494661       15.42785685625848       -2.14195927189464
C           -5.67378334992396       16.39835190416058       -2.85883451928500
C           -7.01045621309650       16.22690451243384       -3.16460388181808
C           -7.67780274729934       15.07471336920742       -2.76835741715732
O           -8.99420858452033       14.87102532954401       -3.05251504359766
C           -8.11493533409380       12.08860522399857       -3.84669573603549
C           -8.61283930279533       10.65851383540530       -1.99956450298485
H            0.48656535396301       -0.57670473666687        0.07404730967103
H            1.13472626034743       -1.27202011771753        1.55514208924830
H            2.23266790316320       -0.67814202088593        0.30940412396067
H            0.30943791258722        1.06603900632129        1.92058981606961
H            2.02104939496369        0.87904369247248        2.27743744906512
H            1.69110786042841        2.94609112133854        1.06981518747882
H            2.64016595683592        1.82461742066455        0.10369783668701
H            1.04684240288264        3.00494673668203       -1.29332580339849
H            0.71437618346691        1.28257309443890       -1.29154630834049
H           -1.35982077903648        2.52897098056196       -1.21064131448882
H           -1.16312913378921        1.58089508644892        0.25202012899568
H           -2.06841749954462        3.74903805692876        0.80712842475544
H           -0.47477211216505        3.56825618610326        1.51719435359050
H           -0.74192107460055        5.81112400021823        0.65021630558179
H            0.52973659090138        4.97332707005714       -0.21944998077983
H           -0.81472018574197        6.30123634808139       -1.74631923818848
H           -0.92313558256253        4.59528257361658       -2.14012393102445
H           -3.09512872254315        5.63553297639121       -2.37509437195836
H           -3.13159457335976        4.42402925106500       -1.10714511093790
H           -4.41043241205981        6.32599571491938       -0.38974837682440
H           -2.99149699798359        6.16732318553570        0.62738820902019
H           -3.37231260625208        8.50110201420658        0.13882701637818
H           -1.85336861548113        7.98154607237256       -0.56307336668896
H           -3.05545927628045        9.46903077913571       -2.07986256849524
H           -2.79238186904438        7.88976706295797       -2.79078896516368
H           -5.00577314450232        8.67629825269085       -3.35234865879032
H           -5.09146704200952        7.21862467502999       -2.38124008220775
H           -6.80680089386681        8.62573990211591       -1.56882591513065
H           -5.54728412122682        8.60169230647330       -0.35044146090954
H           -6.18585314138676       10.86844601519989       -0.45037184767376
H           -4.65585645804122       10.76211396139840       -1.28407800205520
H           -5.66346332983308       11.98576127901544       -2.91318244298956
H           -6.28986939218055       10.41502186633119       -3.41810330537690
H           -8.79551891092381       13.13729986892595       -1.46760758720978
H           -7.35495856015454       12.56061185888667       -0.60440347331294
H           -5.13401556642821       13.54706782020519       -1.14489429989306
H           -3.95540647840843       15.56856303127982       -1.88806532416581
H           -5.16705372041193       17.29746839096119       -3.17053286836790
H           -7.54790636838298       16.99157702907137       -3.70693815234662
H           -9.37060745488463       15.66491365020995       -3.45223834688566
H           -8.18488163882232       11.21742607237604       -4.49513956294206
H           -9.08665530827595       12.57548141938548       -3.79272395619170
H           -7.40154791123850       12.79069275131673       -4.27365733790001
H           -8.57038437610279        9.77827626279275       -2.63842990935682
H           -8.36177628069389       10.37126744555694       -0.98154486732833
H           -9.62986992325223       11.04710838096119       -2.01065595918364
