30
 energy: -40.093426057474 gnorm: 0.000511819100 xtb: 6.7.1 (edcfbbe)
C            1.71761338053618       -0.71977807463771       -0.22817569572049
C            0.90013183184564       -1.59781930300274        0.71227382761623
C            1.05131783675458       -1.19734839622739        2.18014779202045
C            0.33731231753681        0.11080974772821        2.54687077658194
N           -1.09248006353538       -0.05964999167257        2.54856978293587
N           -1.69094888850885       -0.55181700253800        3.58908619037764
N           -2.96036455771228       -0.65067893707311        3.33872121250337
C           -3.23950596146509       -0.20861107395062        2.07778430441253
C           -1.98862077774115        0.18502040268597        1.54708381953090
C           -1.88397120336767        0.70513481533504        0.25695711921892
C           -3.05316872531166        0.80699298048089       -0.45963521778810
C           -4.29464000381361        0.41335255375135        0.06969064381979
C           -4.41715145008617       -0.09911650113758        1.33985570426275
C           -3.87326419625329       -1.15773227064705        4.31884103344269
H            1.42186541008404        0.32565702281053       -0.17467111770483
H            1.59074967290561       -1.05261921212282       -1.25451108452029
H            2.77384144410332       -0.78371941876442        0.01950547561431
H           -0.15323731925961       -1.58085882695116        0.41969298843223
H            1.24484220328918       -2.62729370547964        0.60755003202077
H            0.66767861405954       -1.98941823103305        2.82606974904545
H            2.10998316113151       -1.06881128147394        2.40579659355307
H            0.62757813709289        0.41085015936789        3.55543294263495
H            0.58997888744584        0.90375224219767        1.84306567826323
H           -0.93831505522776        1.00745857085245       -0.16007434439367
H           -3.02245266256584        1.20227582452425       -1.46248422609819
H           -5.17498864610594        0.52065234581290       -0.54371032447054
H           -5.36876243621504       -0.39866889307711        1.74607550201743
H           -3.30341494152544       -1.43833122821527        5.20244990014507
H           -4.60509722214514       -0.39285580381246        4.58335539099548
H           -4.39858878594618       -2.03026851373055        3.92758555125082
