35
 energy: -36.180758928852 gnorm: 0.000342863220 xtb: 6.7.1 (edcfbbe)
C            1.12346914190725        0.62537820230714        0.21549106747741
C            0.82039381574040        1.00840211454399       -1.22789748597976
C            1.22662356905155       -0.06859065346250       -2.23585712494181
C            0.49323011710811       -1.40405245531684       -2.08193410083747
C           -1.02849283083669       -1.32309091931680       -2.22222213346799
C           -1.53162056177520       -0.72333293041405       -3.53992238276729
C           -0.99988297190880       -1.30935109975835       -4.85115292283137
N           -1.54849605637703       -2.62076370769777       -5.33166209659634
C           -3.02180394845249       -2.62325652759409       -5.31129530542477
C           -1.09446984515145       -2.80977573597714       -6.72469742176516
C           -1.04764351363140       -3.74975492938981       -4.52867347952194
H            0.50996684373955       -0.20967373747691        0.54443150784438
H            0.92373663112083        1.46671150042517        0.87361286717958
H            2.16977304645764        0.34993797270142        0.32401595691370
H           -0.24156377523430        1.24161663769532       -1.32851125370860
H            1.37329566733290        1.91748447027872       -1.47232671896177
H            1.08202623263828        0.32342158713200       -3.24598036976609
H            2.29471442540224       -0.26236676866526       -2.11781277660693
H            0.90465320130296       -2.11154179348686       -2.80706390143148
H            0.71311558116565       -1.81100895335431       -1.09492874013441
H           -1.45381179913930       -2.31408217649122       -2.04925285876955
H           -1.41434542269433       -0.68870560450695       -1.42369509723906
H           -2.62162755352448       -0.71363659756459       -3.53503873653902
H           -1.21874256317378        0.32243060895164       -3.55655201798007
H           -1.21583638755822       -0.58408521580032       -5.63909127582481
H            0.08336981923087       -1.41670909992106       -4.78038198530964
H           -3.40657924476770       -1.74920629076742       -5.83426155192437
H           -3.39769642221879       -3.51853583991677       -5.80412238067388
H           -3.38969137445113       -2.61607253423680       -4.28789398455266
H           -0.00784923351405       -2.76535185488306       -6.77715681212573
H           -1.42021950905874       -3.77937866129484       -7.09773736254955
H           -1.50683567764643       -2.03526934184299       -7.36904730267675
H            0.04004153848808       -3.77572444561756       -4.55154113235244
H           -1.37367016529924       -3.65750450094774       -3.49663328126637
H           -1.42617077427445       -4.68859071833086       -4.93013740488993
