50
 energy: -76.917765720682 gnorm: 0.000226924131 xtb: 6.7.1 (edcfbbe)
O            2.02302964222809        0.34362716297421       -0.60095357476692
N            1.93636137264342       -0.29248993962459        0.42016278759063
O            1.31043019372312       -1.30850571017139        0.57745226456901
C            2.67385396870962        0.21756996026138        1.57335281846647
C            2.53277584888771       -0.43070402488417        2.80625245458411
C            3.21383161133898        0.01323454411824        3.91756654591132
C            4.05765097981602        1.10931536065595        3.75081155622859
C            4.20870278584220        1.73807569105872        2.49545752519922
C            3.49329924212797        1.31317925783144        1.38593091835931
N            5.12877572889160        2.74925813661367        2.66496441702459
C            5.68852275149584        3.57246401876083        1.61968313969542
C            6.82880899379165        2.83187857086410        0.89453402868891
C            6.31714337436404        1.62561965407672        0.15415070721736
C            6.36774217709398        0.36313434976012        0.73126176095339
C            5.84131123841338       -0.73483845622596        0.07202645076074
C            5.25656817625437       -0.58045697659130       -1.17326133687851
C            5.21009232556001        0.67282982385744       -1.76222196606149
C            5.73609334878915        1.76902308154537       -1.10150366911447
C            5.50516973664183        2.73745730219604        3.93869469531956
N            4.87445330203307        1.78718415613847        4.62629896356258
C            5.12016121878291        1.46848198047124        6.01309351324355
C            6.37640900889314        0.58885625786230        6.14354991540517
C            7.56747222172902        1.28217695387154        5.54074026984732
C            8.14945133118315        2.36905915234460        6.18553556098192
C            9.21292818695646        3.03975752713135        5.60848236601194
C            9.70738112388200        2.63295425681660        4.37894149267636
C            9.14116474727688        1.54630005491780        3.73440819685006
C            8.07323005568898        0.87867058199878        4.31162640154328
H            1.87384813471764       -1.28439754889895        2.86148620456239
H            3.09853057873567       -0.47738140031773        4.86973165200732
H            3.56450551016361        1.77449722084039        0.41381611739515
H            4.89567366230356        3.82066280742082        0.91165295381888
H            6.06741490492691        4.49114604537132        2.07109552371539
H            7.28107898805637        3.53384210892785        0.19360145928461
H            7.58429477823340        2.54038970792003        1.62710149920841
H            6.83656266069485        0.23638897238140        1.69688021676197
H            5.89285276601580       -1.71158478142914        0.52923643412311
H            4.84546170062315       -1.43418730367910       -1.68837366246085
H            4.76157442056200        0.79497861695839       -2.73503475857716
H            5.70355229123906        2.74359937350563       -1.56685092857829
H            6.21663119234364        3.41908108583979        4.36696735718150
H            5.26493647359739        2.40234421607469        6.56004431847626
H            4.24590020644439        0.95503313910790        6.41410468886756
H            6.54426027978171        0.39920097915193        7.20394365897651
H            6.20617625645066       -0.36759546078553        5.64690342254480
H            7.77940663541256        2.67896614474530        7.15223410743908
H            9.66391713035294        3.87411818963135        6.12282729249972
H           10.54235710793120        3.15113096833511        3.93414225677015
H            9.54011971842809        1.20851984535289        2.78939700752976
H            7.64772990998259        0.01438434486544        3.82016497450493
