68
 energy: -79.959063905398 gnorm: 0.000351289460 xtb: 6.7.1 (edcfbbe)
C            1.33083509029954       -0.38660138793555       -0.57574701146559
C            1.12308061504574       -0.21071571775621        0.92357190752093
C            1.49265255496143        1.18643964583358        1.42404400997235
C            0.66742895092568        2.32684540146193        0.82369269359937
C           -0.84218645089850        2.22064362179776        1.04815639964760
C           -1.27303192371531        2.14007651058713        2.51363006055195
C           -0.84606808205663        3.32801625144382        3.37763905683858
C           -1.37815205134712        4.68624962230699        2.91559568047141
C           -2.90254472886914        4.78739818099261        2.82852333629481
C           -3.64832068397558        4.46348219746842        4.12448831386358
C           -3.25566900929259        5.31768058818160        5.33263921577762
C           -3.53241049534064        6.81465665918465        5.17042316311868
C           -5.01666022557787        7.18288888992414        5.15740002277369
C           -5.69354920119341        7.07359199990179        6.52887195203884
N           -5.17292149112663        8.05853788060728        7.45249923500757
C           -5.43110428632140        9.39577927329062        7.35554852176713
C           -4.73887525614537       10.01231813555405        8.34427614066937
N           -4.05933641096554        9.04600160008093        9.03116064379000
C           -4.33796346071944        7.85773274967682        8.48086655431922
C           -3.84415320867438        6.53512068360266        8.92027240492251
C           -3.25092323544933        9.33747064093873       10.20180145050529
C           -4.13930149288382        9.60577366867019       11.39616297690412
C           -4.38007725708939       10.90835030439577       11.81116577742453
C           -5.20588211771876       11.15296448693576       12.89474711838147
C           -5.80188764487115       10.09831463534220       13.56491628441784
C           -5.56830059749362        8.79720292228766       13.15203092047912
C           -4.74139947144355        8.55088818842233       12.07055661659360
H            0.65405067705978        0.24694103731330       -1.14320574931180
H            1.14610328009601       -1.41917727746722       -0.86276253859539
H            2.35245655967364       -0.13288936818842       -0.85027728316301
H            0.08476815980112       -0.43375445970198        1.17552574152954
H            1.74726102973746       -0.93514934013476        1.45270075401990
H            1.39801279919453        1.20423485975393        2.51209908481108
H            2.54389061022256        1.37217765422073        1.18921205150618
H            1.03077683871227        3.26826004138973        1.24233139265435
H            0.84772957402589        2.36882352261655       -0.25195401904757
H           -1.31938915206848        3.08284736272207        0.57663625191885
H           -1.21786032883858        1.33257507154513        0.53663896539785
H           -2.36042814019486        2.03996565217186        2.54588209389488
H           -0.85813414013303        1.23334537644299        2.95767389880895
H           -1.17115162413753        3.13901144874552        4.40393332322970
H            0.24386484131645        3.38155024129160        3.39609851140759
H           -0.99897358989712        5.45430670789109        3.59488744187124
H           -0.97052454397253        4.91066661545431        1.92879686423424
H           -3.16309587936918        5.79504237084361        2.49578027763409
H           -3.26048950516874        4.10140507998343        2.05976908409681
H           -4.72036965168185        4.56186315587669        3.93817945121422
H           -3.46766598401310        3.41946256688996        4.38375302271920
H           -3.79046847936406        4.92740063651991        6.20335670674657
H           -2.18970481883110        5.18577339506722        5.52240469477962
H           -3.02766024108423        7.36926726876556        5.96759317037610
H           -3.09151230701415        7.14679859037016        4.23132425704847
H           -5.12998404831705        8.20439066249208        4.78987523711059
H           -5.54799566982681        6.52636636157187        4.46985916016320
H           -6.76606808078796        7.25218644657253        6.41928845547623
H           -5.54819965555074        6.07913124856187        6.94862242877191
H           -6.08071215011400        9.80080661202016        6.60783753304374
H           -4.67997149924164       11.04692391043574        8.61032183032206
H           -4.68001448875683        5.89817693020901        9.21107526287329
H           -3.30565648704153        6.03711596656551        8.11456705369331
H           -3.17629008858095        6.62580990559198        9.77071416517830
H           -2.58145868901101        8.49913547443904       10.39743614191365
H           -2.64631624679824       10.21956441377087        9.97887962216229
H           -3.90867143614775       11.73484859280684       11.29938171616862
H           -5.37992311115609       12.16770534752150       13.21654205346505
H           -6.44272830710568       10.28907114885743       14.41116675461871
H           -6.02553403052551        7.97194689044507       13.67535505844614
H           -4.55594042326250        7.53254424464920       11.76090663039831
