67
 energy: -83.509525174981 gnorm: 0.000196690244 xtb: 6.7.1 (edcfbbe)
C            1.43412135614813        0.45417226593234       -0.84042465227138
C            1.13268274084110       -0.69544493968506       -1.79459051050561
C            1.46491310567785       -2.06872255593815       -1.20897354654044
C            0.66210236711995       -2.45134289798209        0.03601349464984
C           -0.85370472052668       -2.50965135879466       -0.16348116441804
C           -1.32938689068559       -3.50318646631459       -1.22580135033500
C           -0.89489730325755       -4.95331996917339       -0.99956580252770
C           -1.29677668687735       -5.54747121566295        0.35182757833769
C           -2.80497058164089       -5.62235727247630        0.60140089532218
C           -3.54041141560479       -6.64683013220672       -0.26665787561321
C           -3.25267803670354       -8.10225744466841        0.11155899459364
C           -3.90360850823536       -8.52819302610353        1.43253225095480
N           -5.33748734341659       -8.69215467201328        1.31138286248192
C           -6.30952026892767       -7.75385790953229        1.64015319113189
C           -6.22085153275941       -6.47100228884923        2.15463978055934
C           -7.40754564624623       -5.79518762174808        2.37294318900780
C           -8.64135557620562       -6.37618508224726        2.09177368266130
C           -8.73825535717287       -7.65838382229011        1.58238978069286
C           -7.55374961276142       -8.34023463842910        1.36013850834248
N           -7.29549100029920       -9.61363224065284        0.86799676073473
C           -5.96286175375076       -9.78694396743521        0.84729091312162
N           -5.35788231448248      -10.92062263533912        0.47370484211677
C           -8.27636775426806      -10.61068430320842        0.48116183980436
C           -7.98250648527764      -11.18076003439289       -0.88584310697642
C           -7.84371355095897      -12.55265715110334       -1.06693565672100
C           -7.58037150350992      -13.06617794995269       -2.32656157801493
C           -7.44170451782505      -12.21287732967069       -3.40798063923699
C           -7.57327107532480      -10.84449195151156       -3.23158936981869
C           -7.84446224917485      -10.32915673395716       -1.97681033312436
H            0.78623210124463        0.42250665206519        0.03193786025197
H            1.27978563591763        1.40778929949044       -1.33986776003274
H            2.46771721957293        0.40809918947734       -0.50427026519455
H            0.08205804374882       -0.65943946652862       -2.08838770704633
H            1.72692216538153       -0.56342725335680       -2.70199129169132
H            1.31607482273473       -2.82467689959824       -1.98301376561555
H            2.52487104524295       -2.08395970589521       -0.94282206224515
H            1.01929161245327       -3.42222797641470        0.38682019953139
H            0.87178976836310       -1.73137109699062        0.82911688442199
H           -1.31634964360126       -2.75470268140880        0.79576716668834
H           -1.21539375495589       -1.51860074068455       -0.44301866381242
H           -2.41994740014708       -3.45285750649521       -1.27889458188167
H           -0.95260577103072       -3.18943627503605       -2.20065853773352
H           -1.30627957015696       -5.56420654539994       -1.80691785512414
H            0.19143103360281       -5.01360926949984       -1.08026397738962
H           -0.86177734827739       -6.54669363152149        0.43097395158737
H           -0.85183189714980       -4.94640585997232        1.14539454614464
H           -2.96201549703497       -5.85061019670940        1.65863584058891
H           -3.24183138265435       -4.64057254435948        0.41847344533892
H           -4.61666446465356       -6.46599705721460       -0.20717056269580
H           -3.24714568389650       -6.49789374436350       -1.30575277747274
H           -3.60609665910724       -8.75644095236114       -0.68987875113999
H           -2.17623466133114       -8.24535758209412        0.20304872874511
H           -3.47705304063475       -9.47160273731658        1.78481883499113
H           -3.72303926591211       -7.77609919630468        2.20051609537063
H           -5.27322200583367       -6.00812017959600        2.37238503711083
H           -7.37607653534671       -4.79362081868183        2.77040645064975
H           -9.54256565403442       -5.81429550074359        2.27663403586282
H           -9.69929444190910       -8.09866278438609        1.37288149533961
H           -4.35912992595317      -10.93711915878267        0.35871869395071
H           -5.90116187960766      -11.62101613905936       -0.01194930212007
H           -8.29868882301216      -11.40813461528163        1.23190298154293
H           -9.25107082519900      -10.11868455270150        0.47738079379383
H           -7.96446916547336      -13.22215277584057       -0.22676027813162
H           -7.48715788919233      -14.13243666941242       -2.46045035787195
H           -7.23903517968942      -12.61340445799318       -4.38856056359440
H           -7.47422914262674      -10.17836163533162       -4.07431902714614
H           -7.96003382376084       -9.26300158804420       -1.84238793240640
