45
 energy: -59.483707859372 gnorm: 0.000122532306 xtb: 6.7.1 (edcfbbe)
O            1.99854177081126       -0.54365098208386        1.99641613329797
C            2.79346983865539       -0.25710961507239        1.12858866384554
C            3.17689314956913        1.11954292351804        0.81179940027817
C            4.09442702723776        1.47441515648211       -0.18458773440353
C            4.39678052196806        2.80369750885593       -0.40234478700388
C            3.79728214802285        3.79689644135816        0.36018197063636
C            2.88628954028408        3.45832371414097        1.34912047005447
C            2.57825424215263        2.13241948302837        1.57348223887329
C            3.47542501771427       -1.35403588766926        0.28526572994726
N            3.08821630764562       -2.75219842338380        0.60668021739899
C            1.61488544245834       -2.98672080039510        0.45507288853648
C            0.97016292043391       -2.72795960441841       -0.90766459553335
C            1.11671301341460       -3.83844807058657       -1.96387593444885
C            0.96574620613406       -5.23006977853438       -1.40629259325850
C           -0.16550932278030       -5.58636120917793       -0.67922263369018
C           -0.30012237780059       -6.86451591737528       -0.16698027727207
C            0.69218242379249       -7.80782704908688       -0.37732026155724
C            1.81486862064026       -7.46848925078971       -1.11187263495928
C            1.95015142341239       -6.18742264183474       -1.62039332740522
C            3.85899708155807       -3.65547037012339       -0.26694258152362
C            3.44550756563936       -3.06040584113673        2.00826569724595
H            4.57951396531082        0.72868323715588       -0.79511516846412
H            5.10519550882340        3.07049174445297       -1.17125572022219
H            4.04258502380923        4.83220039338767        0.18141217813527
H            2.41932910348354        4.22776789508784        1.94340808598055
H            1.87255224171444        1.84922322308969        2.33953913526908
H            3.25084179479524       -1.16225286965979       -0.76553776053255
H            4.55511137747596       -1.26084924763880        0.42735048793917
H            1.42604535535043       -4.02691848381301        0.73086103848318
H            1.13005709542754       -2.34170452714678        1.18964622383424
H           -0.09384401542765       -2.61568065466528       -0.69238523882063
H            1.29313234218570       -1.77709964074251       -1.33249450824691
H            0.33588535579207       -3.67582760317089       -2.71095710299955
H            2.06758591001672       -3.76288264669081       -2.49349627592630
H           -0.95405942981653       -4.86480747915790       -0.52434113193651
H           -1.18592988087041       -7.12698298640302        0.39057026699401
H            0.58468366677424       -8.80550595958290        0.01829955663029
H            2.58537419006867       -8.20157464492769       -1.29591827941482
H            2.82064707219075       -5.94059484394615       -2.21340159585174
H            4.91737178082445       -3.60875602214455       -0.01442259468992
H            3.50954600226262       -4.67921875273514       -0.14137067381862
H            3.73804325233427       -3.37225671039023       -1.30887164360916
H            4.50681781576176       -2.88134451915619        2.17181502643575
H            2.87264409854607       -2.43214711763284        2.68776144131744
H            3.22772781217222       -4.10469156927139        2.22244820443802
