101
 energy: -105.783365538982 gnorm: 0.000392559842 xtb: 6.7.1 (edcfbbe)
C            1.29652284017952       -1.46391074202752        0.44420946792323
C            1.42647237281131       -0.60622735759041        1.69719311027260
C            1.53654469339940        0.88910045032735        1.39523768410181
C            0.31276141529763        1.50248234902319        0.71128725424937
C           -0.99591557249127        1.38454000276923        1.49554008260364
C           -0.96725239955900        1.99569696552636        2.89777102561152
C           -0.62557793930230        3.48595638164928        2.94538051558959
C           -1.60865189095852        4.39908198097690        2.21004118170120
C           -3.04829871095813        4.35169966311038        2.72725581918988
C           -3.21193375367403        4.66387466017776        4.21621125320284
C           -2.67447995540606        6.02805201911058        4.65221826171664
C           -3.36635724025970        7.23153705619281        4.00902707641090
C           -4.86407489942820        7.35278755540492        4.30133757719417
C           -5.23434014611422        7.37252865373664        5.78631902263539
C           -4.55379473020423        8.47517636136704        6.59997896318884
C           -4.90495021877055        9.90401766572770        6.17963218318206
C           -6.39608869286362       10.26809761599236        6.24231877885575
C           -7.14913683296318        9.91693778330825        7.52936391495866
N           -7.11018392102872       10.89976905165697        8.65873443668655
C           -7.89992728447184       12.13360459386302        8.34804712706165
C           -9.42614142461143       12.01317655752575        8.29080826316895
C          -10.18780391406441       12.19205262253970        9.61259513037216
C           -9.82504911144515       13.44115466061725       10.41900887007402
C          -10.02371225413076       14.76770579582436        9.68313662983081
C          -11.46722191358696       15.05633823936521        9.26484415919846
C          -12.48033142512626       15.07605102133991       10.41203940484996
C          -12.16427056532337       16.06075833226195       11.53974289396653
C          -12.06610280055896       17.52611630609693       11.11125634905816
C          -13.34019096156438       18.10655540382827       10.49402095843564
C          -14.56887240439660       18.08161522553616       11.40462316905457
C          -14.39342837863561       18.90302030755460       12.67648275400249
C           -7.63880947569499       10.22535569598153        9.85843861978668
C           -5.72574810004814       11.31555973137362        8.94873303310878
H            0.35985846117854       -1.26701955954428       -0.07101923685958
H            1.32233773964243       -2.51948813537511        0.70549992742359
H            2.11641558238126       -1.26135101552174       -0.24167941996653
H            0.57528842683063       -0.79106654254552        2.35476060578505
H            2.32629099036853       -0.90923544508287        2.23870865980462
H            1.73256591718131        1.42051239657601        2.32897793715724
H            2.40145187251867        1.04878643437552        0.74593262737909
H            0.52327039197476        2.55681344939968        0.51826145983467
H            0.17054769709271        1.02545762826896       -0.26031421027194
H           -1.78750589202782        1.85889102182876        0.91092032032225
H           -1.26197300613706        0.32990123827976        1.59122169655241
H           -1.94290194541746        1.83351514395554        3.36168057209238
H           -0.23447335608067        1.46006554363402        3.50467421569647
H           -0.56472056227228        3.78996274929011        3.99292234961574
H            0.36546553424019        3.63850564676755        2.51407832697771
H           -1.23600961265624        5.42428590122128        2.27340470310433
H           -1.62107846573022        4.13271193773044        1.15156731258127
H           -3.64512041664189        5.05472296008435        2.14125671833941
H           -3.46078213913400        3.35754940210212        2.54469075364682
H           -4.27297340957774        4.59283704014562        4.46724573740108
H           -2.69683576985481        3.89700730672244        4.79758812852610
H           -2.75649352894063        6.09800108168832        5.73965592386708
H           -1.61161124179129        6.08366043502036        4.41251390103048
H           -2.85612311780510        8.13925182995344        4.34108824078319
H           -3.23987476914260        7.17790499114124        2.92683195828727
H           -5.23537318479928        8.25985331691646        3.81777427980221
H           -5.38544228379387        6.51285095790311        3.84001894443506
H           -6.32074393349979        7.46257402717636        5.87022897676156
H           -4.96077262313484        6.41354304256402        6.22838328453267
H           -4.78442567267752        8.32153434944178        7.65897888011190
H           -3.47386383073567        8.36318997146297        6.50497112463497
H           -4.30551478908098       10.59357161149674        6.77518061254163
H           -4.59352993536197       10.04260133350584        5.14407271913609
H           -6.51024180648099       11.32507820545633        5.99731045190119
H           -6.89815845091534        9.71508497291939        5.44696220570141
H           -8.20236600960469        9.77068460475558        7.28526571253906
H           -6.76296236772829        8.97040313875404        7.90891249661680
H           -7.64039528016980       12.88202044048029        9.09746965121275
H           -7.54136240611100       12.49358509804954        7.38279954157345
H           -9.76283520554862       12.79962812738920        7.61374540325050
H           -9.72907812077438       11.06918891869904        7.83539080397219
H          -11.24668359136606       12.24385296097270        9.35831307636877
H          -10.06877142948083       11.32082591870795       10.25771153332241
H          -10.44397610723246       13.44256353801124       11.31620412782776
H           -8.78781158519240       13.38449940003286       10.76430133319568
H           -9.68145950602604       15.56879376789873       10.33946436024581
H           -9.39235039655499       14.79708303260828        8.79096258494093
H          -11.48157059863737       16.02398537434052        8.76138011287494
H          -11.79309579430954       14.31374432707274        8.53218825516550
H          -13.45722757163040       15.31882641976220        9.99147440622631
H          -12.56310002308488       14.07517226224344       10.84317295287046
H          -12.94203630417957       15.96339205376448       12.29879897727804
H          -11.22197771026962       15.77943274948834       12.01641119530087
H          -11.79601511523642       18.11736931931916       11.98792004017141
H          -11.25404085203579       17.64020266937819       10.38934668529554
H          -13.13572111576845       19.14388988623012       10.21743013961642
H          -13.57605379790223       17.56832632938593        9.57331347833884
H          -15.41333483269030       18.48436237790694       10.84041855677493
H          -14.81836963002502       17.05191044159204       11.66750949050802
H          -14.09702880785013       19.92127428600392       12.43404801093075
H          -15.32878679658148       18.94267191000332       13.22981192771776
H          -13.63715794604974       18.46886543927916       13.32566566562133
H           -6.95415253105966        9.43957009499176       10.17467231563474
H           -7.74602211440887       10.94141716355629       10.67060630929371
H           -8.60597454299942        9.77626542441178        9.64759921033385
H           -5.08692364546491       10.44036171305072        9.04663845245030
H           -5.34441417723801       11.94928552392017        8.15234755716823
H           -5.69444736060829       11.87622744914367        9.88186997525553
