9
 energy: -14.552788709784 gnorm: 0.000795196690 xtb: 6.7.1 (edcfbbe)
C            1.01954993218907        0.29489652197450       -0.16291638793210
N            0.70134573500701       -0.90774843788624       -0.07220300437802
C           -0.68104962709324       -0.95974143334078        0.12933072954641
N           -1.24484417973810        0.18101203243643        0.16843438059401
N           -0.23047059954599        1.14745019071019       -0.01338476150531
H            1.98934325662538        0.72716543739716       -0.32057014338261
H           -1.20626908782732       -1.89218416118149        0.24006619961717
H           -0.43642901173577        1.73629615070990       -0.84169805360959
H           -0.20152641788103        1.79725369918033        0.79433104105004
