48
 energy: -93.795131452696 gnorm: 0.000135998135 xtb: 6.7.1 (edcfbbe)
C            1.44140879613839       -0.47297885539347       -0.77055530948629
C            0.76523412551229       -1.77742990059460       -1.17552516775052
C            0.97830758705681       -2.90775378760604       -0.16650376065983
C            0.44532265681675       -2.62019785024298        1.23889573864538
C           -1.05248329327517       -2.31724524653880        1.30589223189510
C           -1.95972724690030       -3.43544790135048        0.78797255516608
C           -1.71847071812970       -4.79475989779756        1.44893052478234
N           -1.70370657364702       -4.71298620004776        2.88804625404268
N           -0.79065104456937       -5.36916436903697        3.59289881757725
C           -0.99724157423665       -5.06779127093503        4.83414404097954
N           -2.04896395156657       -4.20740248942391        4.94703011612250
C           -2.47514112831153       -4.00327540096866        3.69110099238904
C           -2.54187875231550       -3.58496367157914        6.15665675522264
C           -1.49909021153527       -2.66224526116541        6.80080405876961
C           -0.94413196437725       -1.55677451622306        5.89771613930282
C           -1.93909426396946       -0.51097118399621        5.29886198365740
C           -2.80541712469215        0.29703946094342        6.30775400097377
C           -2.01150275283644        1.11711370250602        7.37506836020235
F           -0.97295109873754        1.73665444108457        6.84318859162645
F           -2.79885955677630        2.00179667604622        7.95112179918749
F           -1.57002171584809        0.27162749879321        8.31142185715642
F           -3.61117067276959        1.11036309556221        5.62056814514555
F           -3.59596797016642       -0.58834878684930        6.96394081599971
F           -1.26661710892833        0.32897271536743        4.50728564095679
F           -2.80171255778712       -1.18863450799870        4.49086080773168
F            0.01604935833415       -0.88623495179281        6.55611264938547
F           -0.33111926718477       -2.12633573162626        4.82026559703959
H            0.98107438445354       -0.04308133056123        0.11566588163710
H            1.36133901525901        0.25356903347122       -1.57480974489339
H            2.49636581895024       -0.63902952897904       -0.56613202419213
H           -0.30168227603782       -1.60333612720106       -1.32890908540636
H            1.17774610883359       -2.10365222536036       -2.13216190254505
H            0.52249038753329       -3.81959974188710       -0.55970574944554
H            2.05024132785414       -3.09620936240902       -0.08123257541584
H            0.68440304036577       -3.46842625209099        1.88574502203819
H            0.97518286530428       -1.75937235149661        1.64673633803869
H           -1.30936949095458       -2.07817429433408        2.34111370806449
H           -1.26198707703186       -1.42327394452512        0.71971092333617
H           -3.00240318760878       -3.13822005257105        0.91536862426211
H           -1.79211920406925       -3.57052971434108       -0.27987945345703
H           -2.49537782651531       -5.50171005845608        1.14246878694930
H           -0.74888165729098       -5.20639931164407        1.16358233844914
H           -0.41974955039739       -5.44991271293391        5.65113012088089
H           -3.29863825895865       -3.38101241896775        3.40129672665370
H           -3.45846230418964       -3.04205844734513        5.91918695385402
H           -2.78536826110355       -4.36746496748538        6.88127749489034
H           -1.92410793095643       -2.21166774535113        7.69844345123234
H           -0.62140789874090       -3.23848425468985        7.10884992899832
