50
 energy: -79.784958956577 gnorm: 0.000235967037 xtb: 6.7.1 (edcfbbe)
O           -0.08888833443223       -0.02678887560341        0.49661027840658
C           -0.56142247885196        0.92597224535574       -0.30377788115634
O           -0.48688652545109        2.09649410872905       -0.09531767145530
C           -1.18468151057376        0.32763976054687       -1.57495981919824
N           -1.69820283888331       -0.99691009597713       -1.36774769809196
C           -0.97172676432245       -2.16361611031110       -1.50164492281882
C            0.33548176193468       -2.40367882491192       -1.90207269559359
C            0.74177526821534       -3.72138392268598       -1.95593741349052
C           -0.12322117063968       -4.76845568195653       -1.63139915504514
C           -1.42273619362211       -4.53821737892015       -1.22726972156530
C           -1.83744329700097       -3.21386597871072       -1.15417121422044
N           -3.04208837020962       -2.63261569010721       -0.79496823779989
C           -2.93132166184869       -1.30519408463833       -0.93961607078392
C           -3.97781576314780       -0.29316622957518       -0.67595281297877
C           -3.54629219503175        0.66305376579502        0.42425168135044
C           -3.74519228331742        2.02923831236266        0.28571254668650
C           -3.36322106552319        2.89531197667296        1.29481280757632
C           -2.77843503633415        2.40311463766324        2.44887187603974
C           -2.58236383446828        1.04044919049690        2.59373473868540
C           -2.96268543574035        0.17222742482178        1.58518669409695
C           -4.22378196900000       -3.34571990624921       -0.37144168598455
C           -4.74108313076772       -2.90698376093955        1.02581158804469
O           -5.78712622404141       -2.30528268254033        1.07871943861629
C           -3.94016654397016       -3.23892950121104        2.20800021675481
C           -2.73087059759565       -3.93899901513224        2.16550310947054
C           -2.04449449459957       -4.20361494317070        3.33486127561352
C           -2.54923505916651       -3.78330355870940        4.55710065490900
C           -3.74797320786964       -3.08764305686876        4.61134243508641
C           -4.43759708026929       -2.81581537450826        3.44790616271316
H            0.33029496880270        0.35843438327983        1.28370329155460
H           -1.96703874199846        1.00480280100388       -1.92171013516774
H           -0.39961530991408        0.28968791861249       -2.33638833865317
H            1.00889416560840       -1.60218772903740       -2.15625241547945
H            1.74961668591898       -3.95142913787734       -2.26185438935299
H            0.23355535804511       -5.78353191135807       -1.70076547325497
H           -2.07891304468963       -5.36159847287429       -0.99371389215684
H           -4.16719615343478        0.27763478401388       -1.59033596317509
H           -4.91491034313493       -0.77227427906816       -0.38774512341749
H           -4.20475323039765        2.42074054811282       -0.60981897022145
H           -3.52006673971530        3.95540445816648        1.17639498018152
H           -2.47786863385292        3.07910678811465        3.23351704831524
H           -2.13357119454057        0.64638508819070        3.49333868324875
H           -2.80355161165011       -0.89037863322901        1.70842943607796
H           -5.03894951600541       -3.16354448624037       -1.08009532672259
H           -4.00552331138694       -4.41357576827811       -0.36135208830604
H           -2.31571334620870       -4.28526969443968        1.23258065190272
H           -1.11298871893098       -4.74743582316440        3.29484722715118
H           -2.00930573678039       -4.00278845094652        5.46519887298126
H           -4.14383766292303       -2.76224123114684        5.56056531834264
H           -5.37152184625596       -2.27508790148565        3.46724810226884
