56
 energy: -57.936196631917 gnorm: 0.000282711651 xtb: 6.7.1 (edcfbbe)
C            0.89752863694130        1.41980307066379        1.49197988766187
C            0.60013236632406        0.19123956316709        0.64103360738639
C            0.99607271057471       -1.12263156243140        1.31826443828501
C            0.17985678842057       -1.47194467883437        2.56443631619345
C           -1.29957305465419       -1.78297578136068        2.28209754382082
P           -1.68931369892657       -3.57063268086161        2.23833595740949
C           -1.10784995567185       -4.33418584477872        3.80146437443121
C           -1.28390042835834       -3.50561348814586        5.07629840953024
C           -2.73555383807389       -3.21657243795206        5.45762159810252
C           -3.49800400333208       -4.45529258593621        5.91313154466360
C           -3.49381980367092       -3.89826618367195        2.07321944332682
C           -4.36784531412158       -2.69609566641923        1.70895916652982
C           -4.25075323495137       -2.28139829160658        0.24136846356480
C           -5.05670095991837       -3.18050277985707       -0.68922411448444
C           -0.77634968431537       -4.53490365586839        0.96938673973940
C           -1.29525314384303       -4.49432732759517       -0.47055795736239
C           -0.80473207250611       -3.29521697152374       -1.28451973904693
C            0.62975145564424       -3.46690421482229       -1.77099668079742
H            0.28121176236724        1.44665129383281        2.38721605801051
H            0.69677842155144        2.32326187479208        0.92310309631735
H            1.94261481328204        1.43239395187471        1.79076277288618
H           -0.45962340739734        0.18507667419866        0.37446473561455
H            1.16362260453466        0.26718824762442       -0.29044686639848
H            0.92015346054863       -1.93271894174021        0.59321958144081
H            2.04370786105753       -1.04909413279075        1.61616276331202
H            0.65722729179978       -2.32075788828980        3.06006729042670
H            0.23115543491133       -0.62955942585020        3.25450871849345
H           -1.93113131145970       -1.37116967240331        3.07439431685131
H           -1.61986951448428       -1.32603560575878        1.34514135641543
H           -1.62915159745038       -5.29148557983118        3.89245745285536
H           -0.04537700731750       -4.55926315555926        3.66270503107271
H           -0.81339726282750       -4.05568709193150        5.89404669667678
H           -0.74702404771776       -2.56136287719659        4.97412953356696
H           -2.72987525402610       -2.49854063638810        6.27933550852773
H           -3.25286902187993       -2.74323623272661        4.61812605588597
H           -3.00748320226328       -4.90286019206089        6.77355425999588
H           -4.50919135793485       -4.18532436433582        6.20508160758196
H           -3.56416587611417       -5.21002517859559        5.13196486009450
H           -3.61094883557941       -4.68791617492874        1.32684161033563
H           -3.81793311975472       -4.31001573386155        3.03135625848632
H           -5.40686020540599       -2.96201660837620        1.91348695471551
H           -4.12233798254127       -1.85063321832247        2.35454157433723
H           -4.61704584882417       -1.25941687292189        0.13454064493767
H           -3.19982058825426       -2.29110083373602       -0.05892517450811
H           -6.11580387283069       -3.11482097703483       -0.45431056053538
H           -4.92032272549491       -2.87044208269076       -1.72142774580978
H           -4.75747364172168       -4.22338509592143       -0.60860424264075
H            0.26995197441648       -4.22232380225522        1.01121320808295
H           -0.82503180379266       -5.56516803397934        1.34168315139167
H           -0.96009791228055       -5.40421717367376       -0.97246678495837
H           -2.38556262797697       -4.51433907103467       -0.47342108952540
H           -1.45184417679266       -3.18006620249626       -2.15535692303363
H           -0.88846110372053       -2.38186911044958       -0.69188643860317
H            0.69903946301712       -4.31552746813530       -2.44653273866590
H            0.95291151270358       -2.57975260305734       -2.30864425433940
H            1.32185594009416       -3.63453848612387       -0.94834127825329
