66
 energy: -71.883101498553 gnorm: 0.000430377249 xtb: 6.7.1 (edcfbbe)
C            1.85686818763234       -0.30600867708442       -0.05916325923211
C            1.66060802968453        0.10293988709589        1.39585726956502
C            1.85847320517915        1.60081180483648        1.63344633872719
C            0.87910290344936        2.50824243695984        0.88617560460949
C           -0.59599764845378        2.28456634768815        1.22422564229759
C           -0.96343045671856        2.50586218250413        2.69290037361660
C           -0.66536519173597        3.90739139002084        3.23025476224129
C           -1.33252843974005        5.04967909319684        2.46154144198455
C           -2.85918424602262        4.97814774899442        2.39789742005511
C           -3.56483855467161        5.03782290889957        3.75402101070321
C           -3.31142182563999        6.31423406444835        4.55954172582198
C           -3.68000828668560        7.61459737400140        3.84133764070378
C           -5.12935696908111        7.69108638648387        3.35699749662905
C           -6.18715903929164        7.55444782838622        4.45459607395022
C           -6.08514866691464        8.57848423107478        5.59310721078724
C           -6.07849542868144       10.05526459469528        5.18628224414942
N           -7.40263020336955       10.76008929471080        5.11467895493101
C           -7.87704136155294       11.01713135428823        6.56617713696946
O           -6.95888732180875       11.84283466359884        7.17132878890795
C           -9.30062562511273       11.53616639227816        6.65547899204932
C           -7.18405862424004       12.04350497648664        4.42034874738953
C           -8.38911284958867        9.97494403357812        4.36031853780540
H            1.08285250504602        0.11704825121639       -0.69451382636712
H            1.81655939421429       -1.38859679376826       -0.15478632807007
H            2.82456651948136        0.03331600127576       -0.42219701243984
H            0.66559253830099       -0.19810391808190        1.72782359348248
H            2.38412308147764       -0.43545927990037        2.01297422017518
H            1.78811934259378        1.79721414294723        2.70522929838583
H            2.87114516190652        1.86960611522809        1.32206362985625
H            1.14495402530768        3.54603194709261        1.09908562152369
H            1.00779929398288        2.36195041480899       -0.18793245115168
H           -1.19464187780924        2.95004609442069        0.59791637716952
H           -0.87380433833519        1.26365784231975        0.95537115951939
H           -2.02759561198995        2.29050334211225        2.81545820625655
H           -0.42241921809910        1.78536669265186        3.30919670188730
H           -0.97476803896792        3.94529212702770        4.27737802101267
H            0.41318312166764        4.07423810308730        3.21303627036023
H           -1.03106064320381        5.99448540940773        2.92015907782919
H           -0.95239696173254        5.05905374516828        1.43845383183547
H           -3.21520190958719        5.79492772512644        1.76535134069222
H           -3.15129669033362        4.04847379604259        1.90695244484824
H           -4.63843153613009        4.91809160728330        3.58811456586455
H           -3.24346799202077        4.18943533448985        4.35993121256997
H           -3.86523686144586        6.24279516163876        5.49918090056493
H           -2.25342806695548        6.36569865114175        4.82058439037282
H           -3.46720160782320        8.45287653831797        4.51004972445040
H           -3.03191193032641        7.73232875730608        2.97200050624823
H           -5.26449687800120        8.63031339338038        2.81159820592193
H           -5.30136055890276        6.89158771425846        2.63625885840065
H           -7.17297036579304        7.57950735562422        3.98794400576168
H           -6.08410216174750        6.56879511663282        4.90903562365883
H           -6.87020256793814        8.37155512032560        6.32165599511404
H           -5.13989789762541        8.40085713474622        6.10704277129587
H           -5.48542298299982       10.62172129738307        5.90697129802270
H           -5.60654788056630       10.14566207692067        4.20807997736832
H           -7.80724319992147       10.03907335095134        7.05572328000747
H           -7.27288400015180       12.75604188837167        7.21241081333778
H          -10.02798966281452       10.81330541588289        6.30117250741896
H           -9.51360247733772       11.71866630196102        7.70768492750131
H           -9.43196908805517       12.47515743043108        6.12174127936828
H           -6.87058454539691       11.85749157051820        3.39517842460430
H           -8.10277720278607       12.62562977815278        4.39561795637328
H           -6.40527714424820       12.61221932705890        4.92543361794391
H           -7.95241738907428        9.66888462485633        3.41151666615949
H           -8.68002002701629        9.08938504081476        4.91962024292830
H           -9.27362725488389       10.57319793654712        4.15313191748186
