72
 energy: -78.205765569340 gnorm: 0.000224265073 xtb: 6.7.1 (edcfbbe)
C            1.30294777950499        0.84596208147491       -0.73178728709996
C            1.22346907151533       -0.32226670017392       -1.70714246738089
C            1.45832992204581       -1.67990291599761       -1.04334657276587
C            0.42743774307333       -2.06876853345894        0.01865309198607
C           -1.01959799242488       -2.13561574440549       -0.47448060019771
C           -1.25837952616395       -3.07775915995644       -1.65582874216958
C           -0.86192823566769       -4.53462801390109       -1.41149863650816
C           -1.61410180617585       -5.22939345282875       -0.27484286080669
C           -3.13360227616775       -5.29258113660060       -0.44586802886804
C           -3.61244785740337       -5.94211370518323       -1.74588079222640
C           -3.10229758929247       -7.36410230198224       -1.98458639607684
C           -3.51709523165225       -8.38716684594245       -0.92584899259206
C           -5.02660925275537       -8.59228364968503       -0.78044085276807
C           -5.75159344530167       -8.99357224597992       -2.06733706707112
C           -5.19283354652393      -10.23367029434120       -2.76850853535988
C           -5.19178259827809      -11.51164575582312       -1.92626873979402
C           -6.58992431345892      -12.01974675985150       -1.55318780852959
C           -7.39545895526311      -12.54195336080798       -2.75019107579813
N           -7.51757286136701      -14.02763263596855       -2.85768861476957
C           -8.19685746858676      -14.64273404094755       -1.67777254058312
C           -9.39360702194911      -13.87136556310484       -1.11044377534110
O          -10.33572350606487      -13.61383752674151       -2.12600744904310
C           -8.30049998246476      -14.32813747885561       -4.07615446298365
C           -6.18593853026808      -14.64338564273035       -3.00311331029677
H            0.49515234581059        0.80664276395879       -0.00561334002274
H            1.22939941079349        1.78968184449077       -1.26762620230056
H            2.24953156112638        0.83002935494667       -0.19574725567869
H            0.25226600823861       -0.31493909061611       -2.20486796955991
H            1.98482637422963       -0.18765727412417       -2.47978130048809
H            1.48417839947787       -2.44767096620172       -1.81959205202274
H            2.44311545619646       -1.66815139570740       -0.56868501492259
H            0.71300003534609       -3.03957527257683        0.43015730998414
H            0.47302919832846       -1.35114780989839        0.84015884752306
H           -1.65119197794645       -2.43945955238172        0.36355667763419
H           -1.34393044360871       -1.13543417701930       -0.76897476954081
H           -2.31692376888577       -3.03099481869791       -1.92158895300513
H           -0.69781748668377       -2.71498308936105       -2.51972727436789
H           -1.01664221068856       -5.09024211961744       -2.33928627716947
H            0.20570640541076       -4.58165350267601       -1.18876372902510
H           -1.21991620050499       -6.24367185891232       -0.17497282171259
H           -1.40091236195200       -4.71367410014507        0.66336394495709
H           -3.55071689970366       -5.83484129015701        0.40623937614806
H           -3.54019904499015       -4.28021832343211       -0.40623058305692
H           -4.70505516869107       -5.94210500016793       -1.74711984088727
H           -3.29486395626036       -5.32545488629436       -2.58866229280778
H           -3.45223690161770       -7.69254518611870       -2.96610813376461
H           -2.01211406918050       -7.34805439904085       -2.02676555281762
H           -3.04137417653134       -9.34133901244616       -1.16639129429425
H           -3.12570915818745       -8.07472756166931        0.04345505547948
H           -5.19830239669243       -9.34849874419784       -0.00979234782345
H           -5.47788376964666       -7.66721552619977       -0.41881244849504
H           -6.80983596551928       -9.14235257145945       -1.83690442067099
H           -5.69978184664601       -8.16443187678713       -2.77384096855949
H           -5.76384911072791      -10.39002483641503       -3.68786841110791
H           -4.16391631732096      -10.03308878907065       -3.06681639596459
H           -4.64260567277601      -12.28308022837265       -2.47042172710697
H           -4.64528451229226      -11.31896110819351       -1.00352272636583
H           -6.49394655850901      -12.78615294342554       -0.78392465461270
H           -7.13549894899255      -11.19225731284957       -1.10017188999522
H           -8.41088055146104      -12.14581895606437       -2.74038646657284
H           -6.91866167112221      -12.19687927254037       -3.66945108238993
H           -8.53608228393641      -15.63357272821975       -1.98547934957097
H           -7.47310745560128      -14.76353050756640       -0.87083349154967
H           -9.82289104741896      -14.50559933466395       -0.32535486212243
H           -9.06600607903711      -12.93346637117340       -0.64322006530142
H          -11.18377133426139      -13.37646014161710       -1.73703172227900
H           -7.84969018405963      -13.84451806711474       -4.94011811721572
H           -8.32177464207487      -15.40207547203932       -4.25046837001484
H           -9.32079920655763      -13.97155954446815       -3.95244891762744
H           -5.70593710651941      -14.27294569944702       -3.90724259410462
H           -5.55642008034713      -14.40584446572444       -2.14900192107412
H           -6.28026714701348      -15.72559739473128       -3.07728108650271
