29
 energy: -29.842915650055 gnorm: 0.000153233595 xtb: 6.7.1 (edcfbbe)
C            0.91514350730665        0.19303420064636        0.08228197761605
C            0.69443840222796       -1.01936837881650       -0.81655018543307
C            1.26709644924403       -2.31831316316739       -0.24115515554637
C            0.69455807007861       -2.70535375806775        1.11849023333468
N           -0.79316846588306       -2.79692236020391        1.09556165952494
C           -1.37108032440337       -3.91695422143917        0.29945616784626
C           -1.08332795999525       -5.27648796642058        0.92803446525525
C           -1.54536374391402       -5.40584160481527        2.38270198260340
C           -3.04182913391244       -5.17608140387807        2.56799801540726
H            0.34343062684446        0.14088358155599        1.00726555398496
H            0.61333768224148        1.09697878641044       -0.43873252461847
H            1.96779272109397        0.28990711446825        0.33402519411876
H           -0.37030270066127       -1.12781637770771       -1.04752681445548
H            1.19534846860890       -0.83774523286788       -1.76769366384211
H            1.12412171899729       -3.12776247307818       -0.95785633443686
H            2.34297731187849       -2.19830312608735       -0.10990502618315
H            1.09958185371806       -3.66441774429858        1.44029415477160
H            0.96871103227167       -1.95169380824556        1.85846748874355
H           -1.13756987064534       -2.90913801099620        2.05688897404019
H           -1.13842912775245       -1.90510358772333        0.72031793395828
H           -2.44965142611916       -3.76128031654665        0.24308312064772
H           -0.96564351352509       -3.87404493304642       -0.71108200211989
H           -1.60675237712665       -6.02099742283715        0.32730341339018
H           -0.01962699008204       -5.50785182981139        0.86230282521128
H           -1.31035050067723       -6.41936294248117        2.70846357608708
H           -0.97787174939502       -4.73529666139225        3.03623372764230
H           -3.60833192728443       -5.82249398649485        1.90312712556004
H           -3.32728331854589       -5.41619100394531        3.58805736281795
H           -3.33599471459043       -4.14513136871130        2.37883675407571
