36
 energy: -44.846436086374 gnorm: 0.000324408718 xtb: 6.7.1 (edcfbbe)
C            1.70332388210050       -2.30835238258066       -0.28014695816523
C            1.23997987494670       -0.89236972558462       -0.17415299339616
C            2.13694448356468        0.13539988068024       -0.32717242329625
C            1.72957880086515        1.46783861975185       -0.25221873662846
C            0.41636386920816        1.80921407946509       -0.02325250379105
C           -0.53949953959292        0.77768068020327        0.20443768835950
C           -0.11951823380828       -0.58171863612252        0.10586398877587
C           -1.07369327537336       -1.60360877174266        0.30713833218862
C           -2.37315217461261       -1.31684687781097        0.61565340576698
C           -2.77762950365161        0.01590835101259        0.75538599119644
C           -1.88581853439043        1.03141770039203        0.55200131504882
C            0.05619835628558        3.27087728105912        0.01107137652902
N           -0.31741196232080        3.84966507344910       -1.33336480155079
C           -1.49933303199962        3.16728429061413       -1.88620098254996
C           -0.61998526882798        5.28131591630583       -1.16077340486117
C            0.80136848014240        3.70496571219934       -2.28028672077778
H            1.53502917477234       -2.83780993367733        0.65642111878493
H            1.16643594850870       -2.83528979461595       -1.06741475160103
H            2.76552335534178       -2.34351052643895       -0.50593606596646
H            3.17833806752195       -0.08021607311265       -0.50951062741199
H            2.47793382362126        2.23914455398523       -0.36703161542339
H           -0.76431026134588       -2.63207851068536        0.22402844120084
H           -3.08697597766906       -2.11061269884210        0.76904318697695
H           -3.79702080709774        0.23933103070737        1.03004060918512
H           -2.22952506059189        2.04441949917402        0.69578949443899
H           -0.77768073164880        3.45406571577525        0.68851919140031
H            0.91621472041000        3.84060554470810        0.36969201856561
H           -2.36543291322690        3.33362879928166       -1.24945769462583
H           -1.72048756504449        3.55174279744257       -2.88029819852896
H           -1.31451484443012        2.09664131166717       -1.95186686497151
H            0.25313013379399        5.81021376956477       -0.78258720705060
H           -0.90754676587140        5.72102795957930       -2.11443495760211
H           -1.43904443528366        5.41401944970053       -0.45600706316098
H            1.68746101191975        4.20695628118244       -1.89629106119237
H            1.02891057379825        2.65046330166086       -2.42667126930575
H            0.53752632998579        4.14735633165099       -3.23919925656053
