33
 energy: -52.655322614292 gnorm: 0.000741771528 xtb: 6.7.1 (edcfbbe)
C            0.35137177398025       -0.10536565508064       -0.28323334949965
C           -0.10501821333980        1.29564620623639        0.08097219574287
O            0.57252710865743        2.29250153725611       -0.72118478395383
C            1.76848011521138        2.67081608953255       -0.32745878832568
O            2.36896763993711        2.31259374045805        0.63697648715444
C            2.36634486032990        3.74752863129510       -1.28912177757331
N            2.34368685062340        3.38109089449562       -2.68042170874986
C            3.50079151336793        3.23781876435348       -3.34881164030971
C            3.51650884823877        2.94456625492084       -4.69298921938011
C            2.31172904382330        2.80625369282308       -5.37513138827296
C            1.12919899173910        2.95440973630498       -4.66711325286940
C            1.17082785243249        3.24076977799064       -3.31582693393096
C            1.55207329997049        5.06393531415466       -1.06317512377129
O            0.80730990825766        5.49428667470600       -1.89789538560317
O            1.82828700128616        5.54423738166238        0.11197412992987
C            1.17638525300811        6.76284261859152        0.54256148418760
C            2.14887057151926        7.54975918377947        1.39796887690430
H            0.19367599877529       -0.29911760344513       -1.34161600687216
H           -0.22341874735686       -0.82430035982736        0.29205268019239
H            1.40435009529015       -0.23715411799422       -0.04617344438178
H           -1.16237171793942        1.44352971287706       -0.14093375663554
H            0.09333775018503        1.50519267383703        1.13494896179592
H            3.39191223113257        3.91566321893409       -0.94802464634143
H            4.41652491162524        3.36149519511533       -2.78959739986423
H            4.46055161060605        2.83275754328441       -5.20179632106815
H            2.30119632680199        2.58662918471575       -6.43115996815261
H            0.17237609971116        2.85341597187236       -5.15363836669278
H            0.26841802490176        3.35373307961060       -2.73787880172388
H            0.85905565834605        7.32279067863179       -0.34161666083434
H            0.29409200285486        6.46939248543806        1.11852779185615
H            3.00957371964026        7.86382759686499        0.81396251561489
H            1.64903710714185        8.43139065173610        1.78685925194151
H            2.49136650924674        6.94236324486793        2.23086434948774
