47
 energy: -57.828237022205 gnorm: 0.000713826470 xtb: 6.7.1 (edcfbbe)
C            0.42873856586919       -0.38859577018726       -0.17992169313798
C            0.73566443171621        0.63216652957655        0.90881935893361
C            1.09658507609661        2.01373955347863        0.35835378719704
C            0.00370433745383        2.67769589122305       -0.48421337289683
C           -1.32884977986569        2.89003600584999        0.23461968828686
C           -1.24340603211313        3.84502347587945        1.43107932512417
N           -0.88913878610291        5.17856997593510        1.00452397995589
C           -1.75445194719729        6.10933794614042        0.51488422088485
C           -1.01970954962798        7.19568842667388        0.14832251216596
N            0.28429451645370        6.90728574309865        0.41364005750923
C            0.33934828556280        5.68224354155397        0.92674676877729
C            1.39819926662384        7.77054720273429        0.17544349428310
C            1.66313861803166        8.79407103710378        1.08712882927205
C            0.81043167478350        8.97942437490129        2.30475317611791
C            2.74045389386381        9.62508644960906        0.83005883243394
C            3.53879616018589        9.45858887164746       -0.29685101973770
C            3.24370962323367        8.42799100974885       -1.17917013336425
C            2.17660897728613        7.56876381391456       -0.96331897008796
C            1.87336294529806        6.45747156258980       -1.92172703327694
C            4.69686223606298       10.37007869293185       -0.53497040931487
H           -0.48134613823257       -0.13719614422242       -0.71880415920646
H            0.29490163118968       -1.37261959060091        0.26133409419664
H            1.24903295502223       -0.44438815477095       -0.89165814948859
H           -0.11321547320334        0.70670761335752        1.59146501935641
H            1.58607645590519        0.27596083235334        1.49339872996725
H            1.37313571433111        2.65925133510631        1.19672185106635
H            1.98292132352865        1.91191704717285       -0.27128792973237
H            0.37729774966687        3.63760583586037       -0.85423511988653
H           -0.18550570646017        2.05688526390538       -1.35945642233678
H           -2.05895504497988        3.27945769697361       -0.47815604392521
H           -1.70338166740673        1.93504861802088        0.59945822952774
H           -2.21129840345242        3.89357293582470        1.93392979977648
H           -0.49415994823557        3.49488786250053        2.14202554435067
H           -2.81119429911225        5.94407525763678        0.46652976511569
H           -1.32259524139661        8.12963643924894       -0.27887203618499
H            1.23881083548264        5.19066386725515        1.24184918569970
H            1.24494323883214        9.73161352476207        2.95597589397495
H           -0.19197623892930        9.30845020412148        2.03151792022211
H            0.71973268521062        8.05068200733991        2.86764925838034
H            2.96504300813863       10.42231872593648        1.52198270055179
H            3.85533238728679        8.28965849424907       -2.05744474221773
H            2.42360862931924        6.60028855348542       -2.84670291305336
H            2.17237328923518        5.49639133723674       -1.50181594744683
H            0.81098067575468        6.41285131801190       -2.15873692474474
H            4.39589998521333       11.40891172439258       -0.41827983524887
H            5.48126338539949       10.17129217669275        0.19456263343860
H            5.10977169826852       10.23116088375108       -1.52969180127899
