20
 energy: -20.354134603163 gnorm: 0.000235075036 xtb: 6.7.1 (edcfbbe)
C            1.07781190657742        0.09133307098797        0.01595202699170
C            0.53356715790953       -1.07213538488580        0.84000182166360
C            0.87898676390993       -0.95983204894174        2.32341832350623
N            0.42265779257927        0.32284753703569        2.92696108044587
C           -1.04390044128743        0.39680142544046        3.04075403061511
C            1.05827197100115        0.55880932214844        4.23437136335281
H            0.54750436668347        1.02346787899177        0.20941780845514
H            0.95537425306507       -0.12525524661350       -1.04102801841579
H            2.13999613705795        0.23788283096669        0.19962649354682
H           -0.54281251015858       -1.16381162535821        0.69329997313424
H            0.98042709366118       -1.99997135341421        0.48198847343903
H            0.43198487603893       -1.78155058823295        2.88581499645186
H            1.96386253206484       -1.01204881692145        2.43825654925625
H            0.72702317500524        1.06137760796024        2.27883735552915
H           -1.40075924769177       -0.39581220822396        3.69651155538893
H           -1.34070005625851        1.35719540733011        3.45824353897999
H           -1.51046981731991        0.28448158073347        2.06502521389184
H            2.14221643392298        0.56688928161824        4.13666909481151
H            0.73862110111471        1.51551173343395        4.64367594598460
H            0.77443651212457       -0.23112040405518        4.92813237297107
