30
 energy: -43.315006876928 gnorm: 0.000561621953 xtb: 6.7.1 (edcfbbe)
C            0.65225231888987        0.55133211674058       -0.38836812533841
C            0.39254331926755       -0.53092851149084        0.31782387085891
C           -0.94831803823395       -0.80974108451921        0.94536755547175
N           -1.46497523854222       -2.08959136684704        0.50617372285573
C           -2.30954830644165       -2.28629282498152       -0.49436533596300
N           -2.54869015644673       -3.58418450183118       -0.68035346606046
C           -1.82100207968655       -4.28382390940716        0.26252261252254
C           -1.11663587540334       -3.32388749454891        1.01539865852279
C           -0.27089612821285       -3.69935599914719        2.05286360097070
C           -0.15855931527361       -5.04990821541706        2.30951482987955
C           -0.85981364499354       -6.00225946423189        1.56356827716340
C           -1.70078428770070       -5.64201834379629        0.53091251443432
C           -3.52637366658175       -4.13215091049512       -1.59124330500829
C           -4.89997285886642       -4.24356740512290       -0.90027716483220
C           -5.22594998981658       -2.97121748381530       -0.30206177181971
N           -5.36835326666161       -1.94127150264547        0.17023834238153
H           -0.08859190323523        1.31441679970949       -0.56072990371235
H            1.62719205153768        0.73048519269511       -0.80544266860464
H            1.14891991408016       -1.28358082107899        0.49070210840627
H           -0.85404412028450       -0.84191084749814        2.03482709693872
H           -1.66524900036019       -0.03216357845811        0.67607445560807
H           -2.75037035466344       -1.49927032713744       -1.07736784547498
H            0.27496410334224       -2.97215466755258        2.63106165125555
H            0.48723352124880       -5.38380611450826        3.10570227953661
H           -0.73858823130543       -7.04630878937284        1.80418946392404
H           -2.23471568228342       -6.38579780993506       -0.03774401776075
H           -3.59893439796655       -3.47169764873966       -2.45866665282836
H           -3.19137213728974       -5.11674890310171       -1.92253504146169
H           -5.66385667274235       -4.51375259457030       -1.63180907902601
H           -4.88287987537429       -5.00433298889423       -0.11515666283943
