20
 energy: -32.374732851320 gnorm: 0.000960959400 xtb: 6.7.1 (edcfbbe)
N            4.22553875088715       -1.29127864635977       -2.13917784840924
N            4.00973714219261       -0.44481117695508       -1.44330153852682
N            3.64298809286859        0.53820367420959       -0.87155014429748
C            3.98457529457612        0.93905882130815        0.45987988625420
C            3.57413083103140        2.41037684568748        0.62231526924635
N            2.17024446072845        2.56462623498549        0.32778182175161
C            1.61031001717810        2.61921133467729       -0.91113812892475
N            0.31782363809920        2.66993044538842       -0.82397925530817
N            0.02849617487355        2.64244167295913        0.47178866873948
C            1.14181439475322        2.57436756668498        1.18544031909921
C           -1.33194418086893        2.69597858940510        0.91971469682387
H            3.45527853009210        0.31860084986605        1.19662832565512
H            5.06138596183375        0.85609843765146        0.64808709343907
H            3.77269102632247        2.74449988343753        1.64103054062263
H            4.13945952537955        3.02466295977246       -0.08156771456779
H            2.15905572896841        2.61594455274698       -1.83087634871045
H            1.21090726338098        2.54267951588630        2.25541602594142
H           -1.90564390065565        1.91626231755432        0.41777304752839
H           -1.37918092778189        2.55960461644639        1.99726568528332
H           -1.76898782385641        3.65859150464679        0.64931959835972
