27
 energy: -39.721645349657 gnorm: 0.000613291744 xtb: 6.7.1 (edcfbbe)
C            1.17386724408376        0.23465045840603        0.15105423736863
O            0.29661009971981       -0.46504128105762        1.01276216846708
C            0.76169662789135       -1.46257784530572        1.76732298630552
C           -0.17588704064440       -2.08577020951409        2.60682900184403
C            0.19210215958818       -3.12378072648077        3.42648418242444
C            1.51502667830253       -3.56786822793504        3.43275880952821
C            2.45329671617322       -2.95928390654785        2.60746979612609
C            2.08389144524619       -1.91807034327151        1.78037027516537
N            1.90038445698600       -4.63192634726808        4.27875447775612
C            3.10041866031678       -4.75462065056295        4.91867324381469
C            3.05963580048688       -5.90736038538268        5.64198306561181
N            1.83990493682314       -6.47462917051253        5.43660676091346
C            1.15456484030392       -5.68787921314379        4.60799692992668
C            1.38979891726146       -7.71540588396967        6.00677138720891
H            0.55965908518661        0.98591644559012       -0.34111076437555
H            1.60621919795962       -0.42962440318743       -0.60189521895678
H            1.97115195187827        0.72891441173551        0.71241954543282
H           -1.18969389591286       -1.72113212718128        2.59443525674617
H           -0.53687222406923       -3.57135816154307        4.08373243865507
H            3.47232831618388       -3.31356061741817        2.58826956398388
H            2.82880242680416       -1.46911041999688        1.14451666037385
H            3.87599768864944       -4.02157631738390        4.83804238604828
H            3.80066369341565       -6.34740321903287        6.27755228501186
H            0.16442069368658       -5.88333752411130        4.24664021117928
H            0.32779447743426       -7.84936751466412        5.81266556643697
H            1.93876908016772       -8.55208861899509        5.57030541321394
H            1.56039796607726       -7.71370820126542        7.08367933378900
