17
 energy: -24.277148747798 gnorm: 0.000902067555 xtb: 6.7.1 (edcfbbe)
C            0.96090104201780       -0.10566549903856        0.04967152777495
C            0.52795713585041        0.72645331812499       -1.14222091169664
O            1.19708580882425        0.29235665115136       -2.35639179573475
C            2.41683968243088        0.76703238707432       -2.57997895217013
O            3.03657755420213        1.52531597325968       -1.90837211861293
C            2.95064849626039        0.21361111596915       -3.92557134476431
N            2.15554426270967       -0.95745734110194       -4.37444939348758
H            0.76126130631806       -1.16129506016441       -0.11891019190444
H            0.40296342260154        0.21619921737315        0.92322962814868
H            2.02043214419470        0.03455388715802        0.24907910018139
H           -0.53347547300708        0.60071509028545       -1.35902903100036
H            0.75845676311298        1.78213479556364       -0.98288530512197
H            2.87468667988972        1.02278227528246       -4.65583860398702
H            4.00523120967371       -0.03954204260484       -3.80883470551615
H            1.16998487377175       -0.77281772996295       -4.11388211727497
H            2.23535215055770       -1.11584136786177       -5.38688206943880
H            2.45123294059142       -1.81008567050771       -3.88044371539499
