58
 energy: -70.986629436740 gnorm: 0.000559665731 xtb: 6.7.1 (edcfbbe)
C            1.27183427912397       -0.18484435674235       -0.02719137175361
C            0.49088589796439       -1.45245089092087        0.13253327574439
C           -0.56557818633653       -1.58402202285421        0.93237611896722
C            0.95453619024349       -2.55375303682473       -0.62826735522032
C            1.37459098571474       -3.48082798891355       -1.27126123587132
C            1.85872205625177       -4.61540095725422       -2.02728766628635
N            2.05798572372554       -5.82555437341344       -1.15907901352773
C            3.07354936484122       -5.48329991758862       -0.12475684584881
C            2.68147484685122       -4.88732405108117        1.06305275014687
C            3.60663157163610       -4.49353020452013        2.01411270271732
C            4.97255228700728       -4.72715253570993        1.75619490815609
C            5.38700369739486       -5.33696192316449        0.55845676713784
C            4.41964781133495       -5.68686195095762       -0.37259310649327
C            6.86556688222251       -5.63719062999136        0.29351050129165
C            7.32993361336235       -6.72028824856950        1.28543372217696
C            7.10434819850539       -6.19948106443446       -1.11438157762702
C            7.72200765388164       -4.35259237281225        0.42906804529901
O            5.85642295080405       -4.34237869295520        2.69291922045361
C            3.15694612407813       -3.81225418555505        3.30061991938949
C            3.77810367197823       -2.40969465827085        3.36678416484169
C            1.63534943843061       -3.64647099906882        3.38143525781486
C            3.59813497862370       -4.65101595470617        4.50800940150109
C            0.76852155931876       -6.20382298663859       -0.54661990304985
C            2.49458779837899       -6.95141494981802       -2.00715568606732
H            0.87620393254711        0.58806452020788        0.62494038225769
H            1.21712108775313        0.16047477537398       -1.05881233886576
H            2.32159493711625       -0.35193725732936        0.21134307162554
H           -1.11054199815339       -2.50897200587006        1.01852405210870
H           -0.91908712643053       -0.75886908928548        1.52469799490605
H            1.14301199302815       -4.86995332516083       -2.81601157439395
H            2.82077351404767       -4.36514588347818       -2.48415671664081
H            1.64526887588904       -4.70485189881242        1.26510942825672
H            4.74602109374522       -6.12484048627211       -1.29576832541689
H            6.80175498566632       -7.65147691626932        1.09094177893526
H            8.39429209690567       -6.90214673535619        1.15793607242460
H            7.15211749098268       -6.45616509520002        2.32480914498812
H            6.80492353752115       -5.48856988951868       -1.88166881499136
H            8.16706330991144       -6.39367928459336       -1.23652839556485
H            6.58793341878910       -7.14484316350725       -1.26536043918088
H            7.10961239856457       -3.45381310247631        0.38042099995497
H            8.31118920417308       -4.33626560430249        1.34545865788429
H            8.43601822818721       -4.29673361794180       -0.38877173900732
H            6.76144850920069       -4.47369076905022        2.38440690115856
H            3.49493649251578       -1.83181204183970        2.48905324839116
H            3.41795442343703       -1.89177300575134        4.25124049938329
H            4.85969564412698       -2.45995598184285        3.42079859051090
H            1.12623716878012       -4.60799814559530        3.37350723025296
H            1.38895158217933       -3.15583204288454        4.31945123829179
H            1.25659478574380       -3.02178072031799        2.57475218731578
H            3.16531946979841       -5.64769716571793        4.45365515477424
H            4.67728742662770       -4.74040951136848        4.55295351903191
H            3.25790399068292       -4.17787453039839        5.42485599735557
H            0.10395446484215       -6.60829224783954       -1.30853962782741
H            0.93314081812037       -6.95676855062328        0.22162622752786
H            0.28649355722631       -5.33227364786801       -0.11008587143701
H            3.33081931968240       -6.66649263130152       -2.64066403154679
H            2.78750524633840       -7.79088446512005       -1.37888537188696
H            1.67686672513564       -7.26271152992931       -2.65559212446863
