45
 energy: -49.733267401051 gnorm: 0.000395912089 xtb: 6.7.1 (edcfbbe)
C            1.29000938659272       -0.27489420378777        0.07580565798198
C            0.94975500574313        1.20672002665374        0.02207058164515
N            1.24741631112950        1.89783396105899       -1.27218367517315
C            0.70460177934216        1.18148164972812       -2.47388941359718
C           -0.82734478223526        1.01528087141371       -2.81874264790552
C           -1.36532776224914        2.19293882945015       -3.67302142596370
C           -1.20084792060983        2.21663753088130       -5.21556551064204
C           -2.19875440737233        1.26990268063926       -5.89418122630113
C           -1.55679460077409        3.64495182776174       -5.65675582981269
C            0.22503607667492        1.93265227663546       -5.70321629785528
O           -0.88253442491874       -0.22821622902401       -3.47806227259754
C           -1.74922005282472        0.82926156270616       -1.60774277118569
C            0.71817645177042        3.29421901662991       -1.23161923789307
C            1.27768270176527        4.19763683197512       -0.14192186924360
C            2.71541222704926        1.94181101515891       -1.45539003805754
H            0.68748296963594       -0.86885189281706       -0.60508996120653
H            1.07663333779676       -0.62358627754097        1.08347229247465
H            2.34158528198027       -0.46684756163733       -0.11652122246487
H           -0.10757254827416        1.34187696279134        0.24118113912539
H            1.52544536384083        1.71881632860869        0.79400855131333
H            1.16100595539532        1.66107766570497       -3.34066877234650
H            1.08821378961607        0.16100134165089       -2.42265037716583
H           -2.44046629464050        2.24851126828026       -3.49504494371155
H           -0.93725026018620        3.11671603146321       -3.28513912068308
H           -3.21603106345113        1.57328268705464       -5.65797631060876
H           -2.07832717749153        1.32023706114101       -6.97358232944613
H           -2.08775594636772        0.23204236344074       -5.59355049841894
H           -0.84085201911811        4.36832477404668       -5.27098936453956
H           -1.55331960835782        3.71390581389406       -6.74084081402306
H           -2.54691384034111        3.92283351175733       -5.30502597147960
H            0.92966628076143        2.65048023834793       -5.28418710132867
H            0.57206762794659        0.92446190811805       -5.48287374167516
H            0.25641777444369        2.04969711493929       -6.78398945454143
H           -0.62809322623365       -0.13210592973770       -4.40185581776215
H           -1.40417680281418        0.01313449338723       -0.98146294133946
H           -1.87822081008252        1.73738532501810       -1.02689848702272
H           -2.72386387656493        0.53588151247377       -1.99011983666030
H            0.93649625932775        3.74547049030426       -2.20205737762168
H           -0.36358144465292        3.23176933496763       -1.11430953052471
H            2.35001415223676        4.34293831700723       -0.22996660850302
H            0.80997207218837        5.17290689544481       -0.25436120560174
H            1.04265023235387        3.84216345882909        0.85661720653338
H            3.20001799740078        2.30573046340666       -0.55286932512721
H            3.09859738507863        0.94846920778958       -1.67555609712271
H            2.97239244948668        2.60105944397231       -2.28246600192599
