58
 energy: -94.951376136242 gnorm: 0.000432419494 xtb: 6.7.1 (edcfbbe)
O            1.82424299773645        0.77436182734234        0.19447263529794
C            2.99328609061951        0.51316302134982        0.40869192114620
N            3.56416770416110       -0.63113546638772        0.00054856834596
C            4.83858990640518       -0.84826381459121        0.18971566692134
C            5.74326571386532        0.11324544119652        0.76937600967219
C            5.15399113880007        1.37478848268650        1.27440220591610
O            5.78971067653691        2.26347663849854        1.79231819760856
N            3.79135238001475        1.46945666897585        1.09136279662019
C            3.11756759852597        2.62001371784470        1.67719104276226
C            3.53297860421878        3.97453957962436        1.08049148523776
C            3.91519248723951        3.92486266899950       -0.40181955101469
N            3.02786764190407        3.10931830219514       -1.20263226181035
C            1.69837570038716        3.12680403879388       -1.18337898378260
N            1.18614130965779        2.22674927588657       -2.01012861753904
C            2.23325785510649        1.54780859662094       -2.58935293576773
C            3.41566886751454        2.11434093301334       -2.07542143481893
C            4.66519660955248        1.63645834275948       -2.45373953994987
C            4.68923302922463        0.59342403565667       -3.35548481321329
C            3.51422205720042        0.03583856901106       -3.86950040223129
C            2.26932999457366        0.49516260954072       -3.49484313303471
C           -0.20269972364382        1.88997213369640       -2.14642788158792
N            7.01432235201832       -0.09108500942901        0.91088334300175
C            7.53356402259102       -1.26165182678049        0.49368467749776
C            6.71071909171987       -2.28647809853317       -0.05389782238957
N            5.36385975625994       -2.04998259647199       -0.16569921022448
C            4.47033335031376       -3.07979299359838       -0.59617364136489
C            4.30403849158101       -4.20761247377354        0.19569495771200
C            3.42777137856780       -5.19835730744210       -0.21063610724655
C            2.72352734372482       -5.06079606212638       -1.39539063356817
C            2.89174804890352       -3.92894035378910       -2.17586077442249
C            3.76504753421254       -2.93162064605113       -1.77942143569071
C            7.30220472649866       -3.48206292803122       -0.47599983063747
C            8.65972239899339       -3.65814137282474       -0.34049376621787
C            9.46999057741285       -2.66078364994427        0.21508770590939
C            8.91783829209538       -1.47529544021324        0.62342109488195
H            2.04974201369464        2.43837573377961        1.53877228502438
H            3.33858851687789        2.63441380075711        2.74749789826595
H            2.71795159405209        4.67948429465900        1.24659328063197
H            4.41095940680365        4.34272885289734        1.61110820295657
H            3.93330204007975        4.94207700065665       -0.80577563091769
H            4.91744952410028        3.50578977776122       -0.49943397477090
H            1.11060148017455        3.79215083912445       -0.57953909974723
H            5.57955132702879        2.05615435452247       -2.06518726473204
H            5.64031942768695        0.19577459177518       -3.67445653056873
H            3.58750901280545       -0.77373946521728       -4.57911597470549
H            1.36666233332888        0.05154818122255       -3.88036669826377
H           -0.44366954378818        1.72339047243797       -3.19552132720743
H           -0.40422356403518        0.97968271699753       -1.57792449891978
H           -0.81868705432278        2.69696684460457       -1.75629913325552
H            4.84996666033986       -4.30170685113116        1.12281940536125
H            3.29392263863378       -6.07557609823597        0.40278678727922
H            2.04034461446777       -5.83503318885772       -1.70780037229922
H            2.34133531338006       -3.82152958465001       -3.09769086760379
H            3.90027850014227       -2.04186901159789       -2.37325843550144
H            6.69123165590527       -4.25589994443833       -0.91387176491613
H            9.10751094768025       -4.58244866361034       -0.67124504859967
H           10.53025819247334       -2.83034607154143        0.31436870602595
H            9.50761895791796       -0.67999342570894        1.04915052433308
