37
 energy: -42.064243578006 gnorm: 0.000500800182 xtb: 6.7.1 (edcfbbe)
C            0.62569304317575        0.73787456982164        0.11571739651107
C            0.57211852160394        1.78004805492904       -0.99524137470698
C            1.09625967703091        1.26929805308498       -2.33863214268389
C            0.32149043611809        0.08244899310429       -2.91507518309671
N           -1.10262491313526        0.33468705834408       -3.12279959092872
C           -1.58927558501713        1.46925608997255       -3.64808478584028
N           -2.78522749733432        1.93931079166076       -3.25191843473381
C           -3.67153075272716        2.65567784393752       -4.14608873943485
C           -3.30673621475751        1.77114348099273       -1.91164931611305
N           -0.90534286904920        2.13741368936292       -4.59307706686844
C           -0.89505050744032        3.58402620325527       -4.67256469342724
C           -0.10034220597259        1.47003388419618       -5.59300109467560
C           -1.97854712174900       -0.75909062455973       -2.74752979411466
H           -0.06407869469739       -0.08369830649874       -0.06295096606620
H            0.36128370847057        1.19349902534379        1.06602347100474
H            1.62955038187826        0.33086086617951        0.20481912933752
H           -0.44970830503456        2.14950590664794       -1.11010783035502
H            1.18797119270638        2.63179005474597       -0.70246577624026
H            1.11192233097611        2.09864668485323       -3.04573007753173
H            2.12642689048211        0.93432468418981       -2.20726060445973
H            0.80203762324670       -0.24907138816444       -3.84047280692905
H            0.38154651414544       -0.74359497888792       -2.20621526070359
H           -4.67525763945667        2.24076894407325       -4.04067707258729
H           -3.71962047476365        3.71978166671398       -3.90809234607690
H           -3.35629163104660        2.52807183203162       -5.17749387301909
H           -4.16493810816314        1.09677069446381       -1.89419567893137
H           -2.53938403627437        1.39346832230986       -1.24336898847237
H           -3.63572253821926        2.74509200051290       -1.54404407790464
H            0.13924493489899        3.91914283108766       -4.76875550433745
H           -1.44932128442483        3.94928366416381       -5.53913608068886
H           -1.31053075594944        4.01685875918559       -3.76712036937878
H           -0.38891343908743        0.42526251064196       -5.67493480724676
H           -0.28370253532780        1.95027655230622       -6.55515100646200
H            0.96864160439034        1.54086120535651       -5.37823118141613
H           -1.59054722593518       -1.68085934278024       -3.18449656645969
H           -2.03097285180431       -0.89039489694145       -1.66539772875882
H           -2.97852967175673       -0.59561537963649       -3.13896917620355
