39
 energy: -65.069474564558 gnorm: 0.000160649717 xtb: 6.7.1 (edcfbbe)
O            2.34749425353737       -2.67049075976410       -0.11289464036577
C            2.72853995013316       -1.52139257734699       -0.13126727343760
C            2.58705021139448       -0.57851925085201        0.97100079797075
C            3.10030712447725        0.72362926241282        0.94719580277324
C            2.93501679453752        1.54840665639386        2.04187218349517
C            2.25992085113725        1.09614364746711        3.16762610985294
C            1.74632567790533       -0.19183932866005        3.20151503881616
C            1.90830170524433       -1.02424147233392        2.11357258210815
C            3.44545869910318       -1.01534032009468       -1.41590592368312
N            3.35868044554299       -2.04820481086244       -2.40976610352337
C            3.83615231999396       -3.29201282098448       -2.26218486186965
C            4.81045032243744       -3.74608508604430       -1.25447455232256
N            3.35217158483777       -4.08784355704738       -3.22608264105889
C            2.51221590524420       -3.34759678926052       -4.02801057143288
C            2.50307146701419       -2.04239822878796       -3.49518733993398
C            1.74546651719045       -1.03615129413205       -4.06942957825894
C            1.00912155101671       -1.38709761840732       -5.18778865170701
C            1.01208608387241       -2.67602133165052       -5.72761776938396
C            1.76563990089360       -3.67772982988390       -5.15421865751727
N            0.19767174770277       -0.35574546986278       -5.82901982941899
O            0.22302453778101        0.74086682486344       -5.32534830215517
O           -0.42825732679045       -0.67859602169795       -6.80504544613709
C            3.65530431848903       -5.48737333710632       -3.37389749846746
H            3.63193641097857        1.09776010176811        0.08624834796603
H            3.33358787354873        2.55080104821999        2.02073695571915
H            2.13589740262364        1.74948735446686        4.01726007296604
H            1.22178542918765       -0.54386032367426        4.07587124400608
H            1.51610374654197       -2.02987613453735        2.11974309092259
H            2.95909081285652       -0.11701581580300       -1.79376079794295
H            4.48827864655621       -0.78713291743751       -1.18146528808717
H            4.30418520874817       -4.33315104788032       -0.48615156381592
H            5.56822034738167       -4.37677800612559       -1.71697325249462
H            5.29503468032896       -2.90714624396078       -0.76426245271647
H            1.70292189183913       -0.02290409432645       -3.70110994848625
H            0.41034097076981       -2.86477658387282       -6.60392769259871
H            1.77030354658076       -4.66972556022183       -5.57386450219338
H            4.67010846483979       -5.62472192498719       -3.75217559670234
H            3.56073737328978       -5.99453285028907       -2.41416051308877
H            2.95677255122065       -5.93353348765888       -4.07652097778644
