49
 energy: -55.043235620530 gnorm: 0.000221223040 xtb: 6.7.1 (edcfbbe)
C            0.91270094212825        0.52094712662028        0.43610808439216
C            0.98264597725086        0.79709954981488       -1.06097369352384
C            1.33067706305897       -0.44225177493467       -1.88704523096352
C            0.31870245647138       -1.58605156181358       -1.79176350922794
C           -1.09923306026993       -1.23532917068651       -2.24760236803996
C           -1.20860011219643       -0.73766683075120       -3.69055853054686
C           -0.66043599497919       -1.69811661758910       -4.74965036422197
C           -1.30796920878819       -3.08548054347701       -4.75398973375919
C           -2.82037387644635       -3.09267873987313       -4.99594374161756
C           -3.36018204292005       -2.44400430585685       -6.27370496245569
N           -3.07962299376703       -3.08242466359042       -7.60999210806075
C           -4.10276229460187       -2.56663629087313       -8.54364611807627
C           -1.72185063109925       -2.70513668958397       -8.09633771588667
C           -1.30907475882628       -3.47691672788994       -9.35731411032182
O           -1.39998660347943       -4.86207876082230       -9.15673965882459
C           -2.70882543829320       -5.24494541421087       -8.82577010782260
C           -3.14864919245477       -4.56609463624976       -7.52333426874311
H            0.07865822957326       -0.13247501668161        0.67968840983430
H            0.78145114851868        1.45124425962880        0.98318178023286
H            1.83146194464861        0.05043017633181        0.77888746361232
H            0.03411862457847        1.21927384377591       -1.39874098209521
H            1.75383884021710        1.54888880186877       -1.24354963490581
H            1.45102719934321       -0.14494353726860       -2.93148155835332
H            2.29712725357098       -0.82272894406750       -1.54824494844061
H            0.69525924718265       -2.42706191611985       -2.37901760743025
H            0.26417596353064       -1.92446239981616       -0.75627659970990
H           -1.73248247825826       -2.11569708369483       -2.11172714545934
H           -1.49953147396406       -0.45745393106875       -1.59625062200932
H           -2.25798191779919       -0.51248002426597       -3.89981936796180
H           -0.66139917938622        0.20140002803984       -3.78128879274150
H           -0.76460910448718       -1.22170230957968       -5.72858847741140
H            0.40791373845747       -1.83271138119072       -4.57919258356695
H           -0.78965558731202       -3.72622148891650       -5.47261927868662
H           -1.14491223364928       -3.54047928658985       -3.77663942411960
H           -3.19709220575825       -4.11150770503445       -4.89642570310502
H           -3.28124467370378       -2.52119203861228       -4.18744192807189
H           -4.44704826284474       -2.41590264021230       -6.17072283100662
H           -2.99967467371926       -1.41577005571111       -6.33381620248281
H           -5.08895162925954       -2.92701986256460       -8.25601232146719
H           -4.10518095488130       -1.47801232569637       -8.52023936586362
H           -3.90333681494355       -2.88796363686732       -9.56194863264058
H           -1.00788122069422       -2.93790580253230       -7.30754480818674
H           -1.69976120448971       -1.63300205946675       -8.29571803789783
H           -0.25962695915997       -3.26605031064864       -9.57147786879599
H           -1.90353885246033       -3.17173930148292      -10.23019000868848
H           -3.40150725937207       -5.03118152663900       -9.65138949849387
H           -2.68238438277626       -6.32512535429900       -8.67168379618089
H           -4.16294031579578       -4.86417137013238       -7.25602086477082
H           -2.45707103570010       -4.88827974872247       -6.74433062543250
