25
 energy: -29.726608837226 gnorm: 0.000847790497 xtb: 6.7.1 (edcfbbe)
C            1.28747747000300        0.03848653398608       -0.19990707451671
C            0.42362111635106       -1.09246894044890       -0.74777155129972
C            0.56076798177926       -2.45600518065373       -0.06801853882658
N            0.24120411985062       -2.57208739845549        1.39521551111810
C            1.36954871043311       -2.15176891625436        2.23566671944710
C           -0.12509918949237       -4.01714460458215        1.66262102259909
O           -1.38149567901455       -4.14025052713023        1.12859959230639
C           -2.10808087478952       -3.00027527283442        1.56269559452245
C           -1.03651221738249       -1.90279624522147        1.75793030875230
H            0.92123860733325        0.41742282944492        0.75198391571035
H            1.26610785747789        0.86878434362551       -0.90081913641466
H            2.32373520887355       -0.27332630026463       -0.09372111973483
H           -0.61966268256210       -0.77515979268877       -0.78702349684707
H            0.72144455624732       -1.27575043041032       -1.78271108282717
H           -0.11112657901341       -3.14696371628232       -0.58435533061932
H            1.58566058068200       -2.81254326865706       -0.18837862674695
H            2.25194952875417       -2.73963917139365        1.98831231936257
H            1.59069078716785       -1.10049534531441        2.07584486165369
H            1.13491208973102       -2.30820919919204        3.28787835351787
H           -0.10628093522032       -4.16896784984062        2.75244349076296
H            0.55575500039335       -4.71309885473977        1.17055485837846
H           -2.84049474446677       -2.76656567938921        0.79059695290883
H           -2.63170381610471       -3.21330804602043        2.49979199492492
H           -1.21012634782685       -1.03098855431336        1.13400893399296
H           -0.99082054920419       -1.58357041296928        2.79934152787519
