22
 energy: -34.208260795157 gnorm: 0.000702908900 xtb: 6.7.1 (edcfbbe)
C            0.66332835860565        0.60690732132864       -0.00575553144420
O            0.65884804033809        0.27541523676404       -1.39977450823079
C            0.63261606109457       -0.98831197033156       -1.73045435160576
O            0.63497587512850       -1.94243112275236       -1.00228620859048
C            0.59144584062283       -1.14675025462648       -3.27290250087086
N            0.95577528072973       -2.49278722231596       -3.60746388841972
C            2.05976530484200       -2.89382181337620       -4.29838883108549
C            2.09155444696305       -4.25370091182587       -4.25176836942044
N            1.01354762091501       -4.66097570111740       -3.52529443157484
C            0.34249251128018       -3.58137053515301       -3.14082070361687
C            0.68958978022817       -6.02494171534583       -3.20569304162784
H           -0.36345374256588        0.66381954993356        0.35642116059955
H            1.14276109087889        1.57894495948987        0.07496269363091
H            1.20998973955136       -0.14669164759173        0.56152764338322
H           -0.42747213482235       -0.92233004060882       -3.60340819963950
H            1.27593477028846       -0.43721117215500       -3.73841755390842
H            2.72883199935235       -2.20464266640747       -4.77190125193621
H            2.79465707985355       -4.94074852281374       -4.67702146993576
H           -0.54898548877795       -3.58282609097839       -2.54471857799202
H           -0.34355629892372       -6.09334181742964       -2.87225800330261
H            0.82840429843940       -6.65540360834906       -4.08310195225910
H            1.34071956597805       -6.38888025434011       -2.40869212214914
