35
 energy: -43.824556241420 gnorm: 0.000490403548 xtb: 6.7.1 (edcfbbe)
O            1.66834631085589        0.46019503892638       -0.14012443781170
C            0.92626195159123       -0.29065525690060       -1.07482251689249
C            1.15330513185964        0.34906531551739       -2.45474822638214
N            2.59170564723182        0.41037838021499       -2.66848966860059
C            3.38430889961258       -0.52199474584853       -3.26546138239428
C            4.67325042032106       -0.10472386596754       -3.12717177430835
N            4.64858192561834        1.06712623659807       -2.43475963958535
C            3.37945149024306        1.35879205085912       -2.17171379543050
C            5.79994421948259        1.88244189537777       -2.11422302817276
C            6.17653554177310        2.77493172716855       -3.29292207137448
C            0.44925312198816       -0.39380389095008       -3.58877268466689
C           -1.07526226269972       -0.19356108631644       -3.62525611105034
C           -1.45808730040497        1.26477417616052       -3.86494652802563
C           -1.65568473228151       -1.07203972302495       -4.73252497678663
H            1.43241807186110        0.18643973189443        0.75246069208053
H            1.26272258264292       -1.33699600566936       -1.08878500665057
H           -0.14387838402146       -0.26576738978963       -0.84742096320300
H            0.80626734939521        1.38502631536112       -2.40515061506873
H            3.00013279419186       -1.39878359333676       -3.74290003629776
H            5.58316261664320       -0.55864955364231       -3.46284117408368
H            3.03641487730349        2.21071828295527       -1.61853242063954
H            5.55855046604716        2.48956418430506       -1.23992666993376
H            6.63031975625537        1.21860335605103       -1.86479363794610
H            5.35964092134037        3.44622374001758       -3.54686193592982
H            7.04266554988850        3.37381644895822       -3.02890499649527
H            6.42562176346288        2.17896665842887       -4.16754645785107
H            0.85861590626210       -0.04459801654845       -4.53988510027942
H            0.65017446333623       -1.46332816169415       -3.50102886403666
H           -1.50076878046866       -0.51951787448360       -2.67138924145897
H           -0.96923186438896        1.64758680116797       -4.75803634179378
H           -2.53175872676506        1.34155235181378       -4.01059092251693
H           -1.19727724345604        1.89933009876595       -3.02150689077224
H           -1.40825679895345       -2.11827153914000       -4.57073770933142
H           -2.73745175410860       -0.98073639530116       -4.75689315429640
H           -1.26701393165960       -0.77024569193102       -5.70225171200978
