40
 energy: -58.292298661972 gnorm: 0.000433282849 xtb: 6.7.1 (edcfbbe)
C            0.63817361966614       -1.41806800286565        1.60342251132816
C            0.20866991225726       -0.90969533663014        2.97582947210635
N            1.07963181124594        0.14188539948624        3.45606186239515
C            1.98476283660424        0.05484646060067        4.43517331378547
N            2.56756442993728        1.25115904791694        4.61083325727782
C            2.03326303709140        2.15297155438946        3.71841505541734
C            1.07072096885597        1.44134679653137        2.98047000494826
C            0.31455180472139        2.06935560957376        1.99861066901931
C            0.56590200186018        3.40866860460522        1.77810859239708
C            1.53202672936543        4.10914707496179        2.50534846295958
C            2.28166137635587        3.49868058907403        3.49049050180184
C            2.32181017201039       -1.13024511646514        5.21608753289158
C            2.71287062879087       -2.29149264700791        4.58805326028196
C            3.11198875203333       -3.40622362858721        5.36312045435110
C            3.53925029284830       -4.66883959663622        4.69621857935878
N            3.12263768474406       -3.36771077426168        6.66683979232791
C            2.72617386714360       -2.26326569275189        7.31830382792884
C            2.29628718538831       -1.08417856195470        6.64017328804380
C            1.84826609872218        0.01202088036520        7.40191147570084
C            1.86091006716636       -0.04488273119576        8.76986297486694
C            2.31522053648881       -1.19292904679012        9.43742812742254
C            2.73539873219874       -2.28342060733235        8.72885894547256
H            0.62490471232213       -0.61896655695879        0.86751257613110
H           -0.04744597143320       -2.19569718317075        1.28055007131229
H            1.64046852141986       -1.83719282919756        1.63394477826381
H           -0.80476472448111       -0.50337816462872        2.92066003112055
H            0.22120783642695       -1.72171508716522        3.70581947534773
H            3.29540029883259        1.44191998417078        5.28400289114485
H           -0.43823144759206        1.54373034129906        1.43507426667298
H            0.00066633758922        3.93192248678799        1.02357277570646
H            1.69063235916727        5.15407892445070        2.29252573627463
H            3.02212444590241        4.03837562589319        4.05757926818565
H            2.77134418495185       -2.35057429586307        3.51251794149743
H            4.01116796589582       -5.32143772406374        5.42384036871775
H            2.67117482799464       -5.18138506519320        4.28213271112156
H            4.23088565691848       -4.46379547980387        3.88184975131491
H            1.46839834247855        0.89538950621545        6.90755249022532
H            1.51239961515736        0.79942053233541        9.34447470727481
H            2.31712100447439       -1.20997640972377       10.51590164973426
H            3.06994348848690       -3.18649888041866        9.21260654786785
