19
 energy: -40.784327883143 gnorm: 0.000540301135 xtb: 6.7.1 (edcfbbe)
C            0.73153245012474        0.16738077538029       -0.11359246511876
N            0.52710059588993        0.97254470250503        1.05932781491848
C            0.32340053837153        0.48632662849137        2.31881089607771
C            0.16882529028602        1.54645484701670        3.15475023869664
N            0.27711724636328        2.66966069414782        2.37880249528263
C            0.49875355025395        2.29216685284088        1.10975001603741
C            0.25045475856343        4.04099088015111        2.84613178481693
C            1.70274692713644        4.58143627248031        3.03636762229564
F            2.33154336564693        3.78400992961102        3.90967140563878
F            2.33399196640058        4.46495970002191        1.85562193015416
F           -0.39818290199095        4.79021779058545        1.94510224601441
F           -0.42225792578853        4.09680488781758        3.99529687925674
H            0.96919420247658        0.80021019333359       -0.96571068721534
H           -0.16927259046037       -0.40704535915291       -0.33574429141646
H            1.55162388951840       -0.53144968483071        0.05396025277381
H            0.30242732770539       -0.56323637710602        2.53706009490719
H           -0.00795314917438        1.59284014647025        4.21137821471940
H            0.62576909045331        2.96920422835228        0.28470034861758
H            1.72373536822355        5.62493289188447        3.38083520354253
