44
 energy: -54.190210581281 gnorm: 0.000198890480 xtb: 6.7.1 (edcfbbe)
C            0.30869000054019       -0.72800138234175       -0.16078433747654
C           -0.16139762915063        0.50201694086055       -0.09620442544742
C           -1.62866147421615        0.83645708418721       -0.03930701320775
N           -1.91128080942426        1.70188719005244        1.08550158096895
C           -2.17609383790405        3.00418711482761        1.04348845996074
N           -2.33490978808385        3.50789711833986        2.26139500689166
C           -2.14428910698939        2.48416637950923        3.16592692252231
C           -1.87268324109769        1.32575503476441        2.41240059450068
C           -1.63251132165575        0.10196947293515        3.02535050266617
C           -1.67639442997710        0.07708999730406        4.40346330978884
C           -1.94915789389476        1.22587761184130        5.15316318666946
C           -2.18642546533802        2.44555928090354        4.55503541408973
C           -2.51835745052685        4.90213570184565        2.58460819443974
C           -1.16866530511539        5.56420881356298        2.88298703135034
C           -0.25659333046499        5.63732248626772        1.66156999686974
Si          -0.68044942260648        6.98353805007777        0.33806609256650
C           -0.76808532480826        8.66358013954333        1.22165829637356
C            0.71921211874138        6.91235781771956       -0.94717151212141
C           -2.33926458655704        6.64725977885732       -0.55747527110588
H           -0.33906080134450       -1.58905043992889       -0.17671146252825
H            1.36405632404813       -0.92473859982843       -0.22234513532168
H            0.50299895964120        1.35513211250348       -0.09281035900477
H           -1.92964346086503        1.35789832557158       -0.95243905032779
H           -2.22240484155915       -0.07591998513099        0.05817188298286
H           -2.27126007348754        3.57794128901984        0.14030808322041
H           -1.41635333032580       -0.78327864347781        2.45133990342241
H           -1.49556167821708       -0.85176896235591        4.92016377465541
H           -1.97235834102698        1.15308968351309        6.22869419408571
H           -2.39371626513829        3.32616283545629        5.14033347701130
H           -2.99494251631311        5.39375447752682        1.73743853461346
H           -3.17424816074051        4.96619935334147        3.45494485303002
H           -1.36283688713216        6.56933486317300        3.25402185014881
H           -0.67831216436689        5.00434071021252        3.68423045776243
H            0.74632534075175        5.87072320865869        2.01948283200793
H           -0.17552421070899        4.64800809010450        1.20496226102541
H            0.11194301009896        8.83622473009925        1.83398592050835
H           -0.82422545472942        9.47391898620307        0.50171514145592
H           -1.63924246786064        8.74682497372990        1.86515695018440
H            0.77395373989903        5.94699950527033       -1.44228809431508
H            0.57374815296477        7.66214391501241       -1.71806863738789
H            1.68648728747036        7.10031927380379       -0.49201244544055
H           -2.40008626681488        5.65158076080996       -0.98899330793054
H           -3.20706794191335        6.79712975073661        0.07856033202951
H           -2.43813965378644        7.34717515492158       -1.38147398620349
