16
 energy: -23.922244680242 gnorm: 0.000546787874 xtb: 6.7.1 (edcfbbe)
N            1.22236330677629        0.03905358241217        0.06064851759978
C            2.35769603389651       -0.02561631892379        0.01336583140298
C            3.81377362640804       -0.06838260285333       -0.02936017902314
N            4.36623204411509        1.02076568828907        0.76570998649621
C            4.11560762066731        2.28267798987122        0.38653924418914
C            4.58354936818022        3.34968759022685        1.12281295185186
C            5.32466196887984        3.10844175765130        2.27439879930865
C            5.57076097489108        1.79315338191242        2.64759640014307
C            5.07365489728108        0.76540983079938        1.87201771545244
H            4.15119535468170       -1.03545316969078        0.35519922458056
H            4.13271851523014        0.02548790631487       -1.07456255526097
H            3.52954215305486        2.42496402824826       -0.51061670095438
H            4.36854998948951        4.35540549934854        0.79809806308858
H            5.70033002436253        3.92759508112602        2.86769037651228
H            6.14081907913700        1.56212158601438        3.53355793200734
H            5.24148504294871       -0.26893183074654        2.13584439260562
