45
 energy: -67.933592162531 gnorm: 0.000311159543 xtb: 6.7.1 (edcfbbe)
C            1.78051522853742       -1.19177468294441       -0.36180969533269
C            1.32569836122121       -1.12491709630511       -1.66848958226034
C            0.06518154346991       -0.60622315544348       -1.91429092756718
C           -0.71966081101430       -0.16127165796297       -0.86248126055947
C           -0.24910443892315       -0.23150978006326        0.43979039836022
C            1.00979246240771       -0.74562517197439        0.70042297433587
S            3.44645041592954       -1.83120145729540       -0.10438184466611
C            3.94850133433161       -0.77158664976516        1.26041195847063
C            4.19152265500628        0.53907032086333        0.83627747577467
C            4.59316802320423        1.48179162257695        1.77579695572052
C            4.74222174432069        1.10095455167613        3.09761595291446
C            4.49935052310898       -0.20355139247109        3.50155269362636
C            4.10595370884658       -1.15677895684064        2.57669504387937
O            4.03156653018268        0.73554645090458       -0.49003808885151
C            3.96214392099656        2.02810346549651       -1.01131646271740
C            4.81179273552564        2.35085812861211       -2.05786198934693
C            4.72367981874372        3.60370532277513       -2.63883621268196
C            3.79554707230442        4.52194117657571       -2.17691806191544
C            2.94472006299635        4.18618826291526       -1.13677031585244
C            3.02013798869492        2.93555091068871       -0.54901894641774
C            3.18950856262470       -3.41143581585021        0.72930347958140
C            4.34092821083290       -4.13214531339186        1.01634579128995
C            4.22807896212492       -5.36801844524216        1.62828603032540
C            2.97547378759164       -5.87833984912536        1.93303418350640
C            1.83477387702992       -5.15510804030226        1.62586737080665
C            1.93324414289116       -3.91399147686717        1.01624072199953
H            1.95058387059135       -1.46800009511421       -2.47782349514945
H           -0.29902793668257       -0.54712319528013       -2.92753398600876
H           -1.70005376448737        0.24447883669628       -1.05650248762211
H           -0.85979146809908        0.11540082314248        1.25871445953030
H            1.38158111448499       -0.79467193828483        1.71322397172222
H            4.79706815106755        2.49452016081219        1.46477031093651
H            5.05817210012647        1.83423502828047        3.82264180479817
H            4.61907980377531       -0.48365616869395        4.53530812663351
H            3.92003153756312       -2.17554664195752        2.87975118357450
H            5.52866588055219        1.62241646270030       -2.40293115435067
H            5.38536807553521        3.86176104357361       -3.45065730105532
H            3.73288306532691        5.49914649711145       -2.62898349161409
H            2.21620368813563        4.89767257791631       -0.78041044809341
H            2.35474993954460        2.66038341243741        0.25694161040770
H            5.30985109267394       -3.72684415522236        0.76750842373032
H            5.11771671019225       -5.93207445019644        1.85928057709493
H            2.88863676099003       -6.84458438537430        2.40416778422237
H            0.85962609730655       -5.55502100233341        1.85477241002770
H            1.04151885839719       -3.35919408142823        0.76979405882259
