37
 energy: -44.305547406897 gnorm: 0.000420900546 xtb: 6.7.1 (edcfbbe)
C            0.48044590291608       -1.57399275071113        1.33208891228202
C            0.27715977563954       -1.62795204247391       -0.17612869149281
O            1.00734686523026       -0.63636970771301       -0.88980740383977
C            2.40650221148481       -0.80315139899121       -0.88439581204030
C            3.04625981648963       -0.06894583761709       -2.06778499706443
N            2.68321776623758        1.37549675468218       -2.21367783094097
C            2.64654418410063        2.03978811889676       -0.89787132346239
C            3.71037086360363        2.02640341031525       -3.04749545847268
C            1.33086115084461        1.50628822473806       -2.84099274845062
C            1.27807514344091        1.32090871675407       -4.36138923130723
O            1.89033812807534        0.10925695055185       -4.73890127252781
C            1.48747598069290       -0.40367095146350       -6.00395204269514
C            1.95677622546574        0.43546437461067       -7.18486986184744
H           -0.20571017941925       -2.26829764651845        1.80666131349651
H            0.27453929191833       -0.57452373200785        1.70744881601360
H            1.49378241938458       -1.85543135617855        1.60746890189705
H            0.54163184346501       -2.62113704782158       -0.56087172239977
H           -0.76525163722463       -1.41875431879946       -0.42362133522248
H            2.83272833340016       -0.46027589084924        0.06856436327656
H            2.66288860259059       -1.86611268299579       -0.99834721297037
H            4.12857264872218       -0.14000938096632       -1.94710030883423
H            2.75552170204788       -0.55491309660482       -3.00069934296447
H            3.57676175964254        1.85770847752566       -0.36250673543338
H            2.52388448310390        3.11377876979839       -1.02655931187907
H            1.81111274421539        1.65641999040088       -0.31588742477388
H            3.83827436695469        1.47028845441408       -3.97377777751239
H            3.41280544759145        3.04854356424830       -3.27499754137096
H            4.66024563657011        2.05082119297346       -2.51626691812320
H            0.69491961816964        0.76177168266699       -2.35902228822151
H            0.94634339230066        2.50391222753563       -2.62211348746170
H            0.21467308171214        1.31227897625593       -4.64014927571779
H            1.74868572187736        2.16889515680060       -4.87792603635751
H            1.93983959081951       -1.39636111418139       -6.04359457365828
H            0.39529765665710       -0.50955154720615       -6.02199185566960
H            1.45920394839939        1.40175691513966       -7.20926139488176
H            3.03195306810561        0.59024590786002       -7.13722428121259
H            1.72482244478847       -0.08932736305637       -8.10621680815425
