22
 energy: -34.996878123639 gnorm: 0.000902816392 xtb: 6.7.1 (edcfbbe)
O            0.65305271562391       -0.36525157107705       -0.08686282395125
C            0.22449959365969       -0.18020997616898        1.15938137476399
O            0.93366267195301       -0.01078385901219        2.10761409819803
C           -1.26754514889295       -0.19792390151476        1.26661084663398
C           -2.04806772977078       -0.26550685916428        0.19293749377555
N           -3.45912171846098       -0.27645761984157        0.20797563955346
C           -4.15192181163525        0.24564125572205        1.23277822843384
C           -5.53098882013634        0.20967392606426        1.23750427941040
C           -6.20700182438642       -0.36396029220301        0.17314567812805
C           -5.48439902585060       -0.89449957043918       -0.90213757157918
C           -4.10291103915683       -0.82350219536086       -0.83925883486124
C           -6.17305111644780       -1.50929064419032       -2.06581992663234
H            1.62423462084355       -0.34597851477061       -0.12454382310583
H           -1.62276984032885       -0.15355153750176        2.28549715549912
H           -1.60810176615223       -0.34921844198049       -0.79153348442293
H           -3.59380079001575        0.70708912470180        2.03143101046165
H           -6.06834110535496        0.63622688079788        2.06935269304767
H           -7.28572562922693       -0.39692338338486        0.16348304953717
H           -3.49086527223515       -1.22055107150076       -1.63676831673569
H           -6.74430616581451       -2.37928783180419       -1.74413905144881
H           -6.88175414122536       -0.80503036752076       -2.49847221675586
H           -5.47014665698839       -1.81841354985042       -2.83299549794985
