35
 energy: -95.497108923672 gnorm: 0.000477803441 xtb: 6.7.1 (edcfbbe)
F            0.56302725991256        0.38632393248162       -1.31678099868311
C            1.65678863457740        0.23369299238085       -0.54224024638146
C            1.73724343023523       -1.23915336996305       -0.00914193682613
C            1.24730706534184       -2.38055116814557       -0.95878686284448
C            2.07762670722963       -2.56414400948864       -2.26583125664598
S            6.12644910703950       -1.39421634117343       -2.55908115601515
F            5.59697837332953       -0.81897468509429       -1.11346864303842
F            4.74360124615512       -0.61119793900753       -3.22317371598666
F            6.95428252936090       -0.05392813871375       -2.93405226656337
F            7.46648648523443       -2.00912263714669       -1.79617277996227
F            3.39987734116904       -2.57242571863374       -2.01590408809593
F            1.77688360861600       -3.69446691839990       -2.86511518681794
F            1.85121320934403       -1.55902542100646       -3.10662882893965
F            1.30932796491524       -3.53121288904555       -0.27182791708192
F           -0.03185302127083       -2.17815864955548       -1.30153439935758
F            3.01660752489476       -1.50437499000621        0.33916302757389
F            1.01356304412476       -1.32349463460188        1.11534650780343
C            2.90577832709966        0.71487513464228       -1.27537901504211
C            2.91350259639809        2.23563625748919       -1.47004550991018
N            3.28852770333745        2.94406278087974       -0.25337683794527
C            2.39614194988439        3.68814428021014        0.40689973527238
C            2.73712444623654        4.33669862677329        1.57674623982883
C            4.02776528348787        4.21058383363854        2.07266530138671
C            4.94224992160874        3.43763174745901        1.36609855196345
C            4.54221148904501        2.81636838364838        0.20270966994521
F            1.43605131095673        1.02016034141108        0.54739400149148
H            3.78805155208451        0.39376130561059       -0.72369806792921
H            2.92877720895121        0.25912562939103       -2.26393693960167
H            3.64305539726473        2.46774159307390       -2.25001467282575
H            1.92928899343055        2.57421336907908       -1.80039794265208
H            1.39808099229127        3.75491255180478       -0.00049795575999
H            1.99705581742799        4.92860498734561        2.09098093665042
H            4.31652238877584        4.70400789815834        2.98757363588891
H            5.95590755428779        3.31640960099558        1.71302460074041
H            5.22531655725941        2.21294226354021       -0.37809498362251
