65
 energy: -102.352773153029 gnorm: 0.000319707994 xtb: 6.7.1 (edcfbbe)
O            2.23835184728026       -0.63214782065111       -1.54315466233205
C            3.38986438353135       -0.99664083288346       -1.41411158794592
C            3.80454793496698       -2.32305194431865       -1.00967510846838
C            5.14569536593347       -2.72568844623417       -0.89790679744371
C            5.45515538012838       -4.00783132036739       -0.52332733147598
C            4.44409990666015       -4.93989241484474       -0.25164885750742
C            3.10716725141775       -4.54611058422942       -0.34691829370069
C            2.79977819234002       -3.26137424032065       -0.71917204254854
S            4.96000356270836       -6.53604707937392        0.22113302523590
C            3.44171417166261       -7.48350375127767        0.19263116212155
C            2.96753680302917       -8.03309884894173        1.37229645063806
C            1.81776745082692       -8.80404692444263        1.34405658786803
C            1.15475512935020       -9.02056926025036        0.14738731341638
C            1.64237920583042       -8.47282886232552       -1.02869349935173
C            2.79425438217547       -7.70687022704451       -1.01345921510580
C            4.52166538042655        0.02439954690042       -1.73059613922078
N            3.94150081224327        1.31118614344970       -1.98899777578935
C            3.90732850154156        2.34997939093462       -1.10363443389932
C            3.16056525688514        3.33141217847863       -1.66629631635934
N            2.73691802661470        2.87590662585043       -2.88344557811145
C            3.20547099498688        1.63445978895485       -3.06082584667502
C            2.97147995814006        0.75809620139635       -4.22480469413428
C            1.95978524410909        3.63783022986619       -3.82658446960699
C            2.56755416882161        3.66678273305751       -5.25279389354340
O            1.82766026021819        3.54811728648768       -6.19961776227951
C            4.02131752801935        3.78553713604453       -5.36413400197092
C            4.61499713511426        3.33017541655207       -6.55151787105157
C            5.97759926953050        3.35358099907386       -6.71200738920868
C            6.79697267525832        3.84934730194183       -5.69220240004587
C            6.21160088329484        4.36484123671572       -4.53473601981310
C            4.84502865726720        4.32893851346199       -4.37218846702978
S            8.52289887937328        3.83847594544948       -5.98071532639481
C            9.21422288541732        4.08735171469833       -4.35163438555970
C           10.13119143933578        5.10854040529655       -4.16062631015196
C           10.71995886021038        5.26952500432819       -2.91780792624412
C           10.39217644324244        4.41745021447351       -1.87658521796272
C            9.47967005349155        3.39377318712775       -2.07790600572851
C            8.89394079746865        3.21808363307895       -3.31827142667801
H            5.95190816842752       -2.04122542119605       -1.10994240087284
H            6.48460844738947       -4.31958005480627       -0.43774963886606
H            2.31795484540035       -5.24707462595232       -0.12358471394514
H            1.77020846531399       -2.94537548325205       -0.79272972862646
H            3.49475982178442       -7.85880577399964        2.29752569000692
H            1.44228674757764       -9.23544731388042        2.25893525327123
H            0.25918797308798       -9.62211245729386        0.12902647984365
H            1.13140752280838       -8.64836125101323       -1.96293927484364
H            3.18848219463938       -7.28436548288512       -1.92579117708014
H            5.19650579101237        0.10898909478083       -0.87873562806107
H            5.07564995514066       -0.32286399116873       -2.60635674163337
H            4.40600161219113        2.31569026159007       -0.15726278538679
H            2.89477808644249        4.29776544711589       -1.28981727918746
H            2.36146429702275        1.25174656203412       -4.97363094875488
H            3.91643402648085        0.46618961938526       -4.68363647426040
H            2.45452446829011       -0.14651320956739       -3.90335735430296
H            0.95082507293429        3.22169191405341       -3.91509498588688
H            1.87178323338702        4.66431869434781       -3.46315193355863
H            3.97404439112947        2.94485973060071       -7.32971616581698
H            6.43138348444264        2.99131367785626       -7.62105239474757
H            6.83016136678041        4.80855470312306       -3.76938999722143
H            4.42273121475463        4.77758022515794       -3.48603291061396
H           10.38041356952672        5.76533759107798       -4.97939393355495
H           11.43605246503086        6.06181592037965       -2.76537801809902
H           10.85307704536121        4.54448314656076       -0.90933205501734
H            9.23432145403314        2.72071280642200       -1.26978353406115
H            8.19484920053544        2.41193739461338       -3.49035483477592
