39
 energy: -56.764135409968 gnorm: 0.000308844223 xtb: 6.7.1 (edcfbbe)
C            1.73961428274395       -0.40457460616778       -0.59537789229903
C            1.04402660491375       -1.75192718330468       -0.44288003315556
C            1.25661084110398       -2.37695079665373        0.93835641124993
C            0.42255056626456       -1.71135105259920        2.03906371364762
N           -0.99121585413629       -1.99535348401165        1.89361149247396
C           -1.59179658706641       -3.14758685603954        2.23434225673978
N           -1.00898133428625       -4.18035359594284        2.84529000869134
N           -2.90751267988844       -3.09376899548889        1.93267950227383
C           -3.16373683700195       -1.85836349999285        1.34408028680306
C           -1.94635299755790       -1.16096898487275        1.32361908416938
C           -1.86302444727490        0.11918360139471        0.80166893321623
C           -3.02551077402216        0.67323315890515        0.29706886037957
C           -4.23124728910140       -0.02235189625985        0.31220374068703
C           -4.32377318904359       -1.29958904873427        0.83616300713871
C           -3.90376414142763       -4.08335612555329        2.27258346424214
C           -3.68355139943666       -5.41497155612248        1.53945765265700
O           -2.63517419118622       -6.01363770953146        1.58700305399003
O           -4.75880418206590       -5.78626181943698        0.89479141267163
C           -4.74111370014152       -7.03706757732584        0.19944605113612
H            1.39363390041412        0.31812733682590        0.13958467806643
H            1.54818513986748        0.00379854679639       -1.58368577807249
H            2.81422307893490       -0.51804617215202       -0.47746457009193
H           -0.02518312724750       -1.64492052516930       -0.64098787521648
H            1.44662743140973       -2.43425132638610       -1.19267698634274
H            1.01034423782480       -3.44043449523198        0.89259691420148
H            2.30919308844372       -2.29095096168140        1.21065588692895
H            0.74736163064903       -2.05074552912504        3.02667396712892
H            0.54535692815805       -0.62936182277507        2.00278290213237
H           -0.00912741811432       -4.17351068517055        2.96294180456101
H           -1.44753167679006       -5.09324915112612        2.73281575489893
H           -0.93602353402514        0.66662478257018        0.77779251505088
H           -2.99607852741325        1.66682111564235       -0.12001074438529
H           -5.11401939376462        0.44436302668791       -0.09390268791315
H           -5.26339337625292       -1.82722702993399        0.83894028677074
H           -3.86756211317356       -4.28619117913057        3.35014449793072
H           -4.88770089577659       -3.69172969322791        2.01697156241803
H           -3.73385663109281       -7.26234553613318       -0.15202011759925
H           -5.07906657247685       -7.82645235213898        0.87137381933293
H           -5.43119486096778       -6.93598032140274       -0.63431683651385
