37
 energy: -58.087425437088 gnorm: 0.000800279933 xtb: 6.7.1 (edcfbbe)
O            2.40729268466913        0.81008149106319        1.93145535656358
C            3.04662414412563        0.54292964696703        0.93303601545437
C            3.34790086233990        1.52168731716638       -0.11246724915818
C            4.09344760570691        1.22843464842028       -1.26006594243881
C            4.33096205527299        2.21497913912631       -2.19632994758653
C            3.83369869021191        3.49738507609147       -2.00897999805062
C            3.09171504890871        3.79779753127483       -0.87650864620358
C            2.84984910887459        2.81927124656187        0.06507988409489
C            3.61093617944738       -0.85835464122566        0.73970218350658
S            3.07242932750354       -2.01365054778308        2.05737859036207
C            3.01691102417527       -0.97656558294124        3.46142205278510
N            1.96828061751805       -0.93536049529927        4.29555886785565
C            0.69407407059750       -1.55994164409277        4.05703771605076
C            2.28854903994032       -0.10483832970079        5.34873326800632
C            3.61467313334322        0.31688008008114        5.15120328504141
N            4.04343166851883       -0.27284756010948        3.97757739573873
N            5.32515013360145       -0.15701650592558        3.49492500216217
C            4.25945324156955        1.16560943592045        6.03841360616537
C            3.53194511157243        1.58033571844438        7.13542323842701
C            2.21183402684829        1.16897800011998        7.33649838524659
C            1.56719855053240        0.32298613514893        6.45632857772437
H            4.48660691584801        0.23865280208618       -1.43125204349792
H            4.90563209210735        1.98445789443571       -3.07981450205916
H            4.02434279265026        4.26011471575994       -2.74763264674070
H            2.70208287040548        4.79300478299455       -0.73038000323428
H            2.27197088545307        3.03302475854933        0.95173779093816
H            3.21494459739594       -1.30253716670752       -0.17414432698128
H            4.69975008843874       -0.83810837784594        0.67370749007746
H            0.83560361010929       -2.57766769520923        3.69605705441442
H            0.13139993214784       -1.58636352249854        4.98612201996652
H            0.13397708926832       -0.99117568236828        3.31210471398441
H            5.58243276291453       -0.95414676497884        2.92268733760772
H            5.48807549773464        0.72300779319134        3.01403198398517
H            5.27960070564097        1.47058301596631        5.87662840263990
H            3.99082174297531        2.23814454098298        7.85599828562072
H            1.68157897442426        1.52433491323100        8.20549801499193
H            0.54702311721261        0.01994383310485        6.62355878654166
