65
 energy: -67.427476275405 gnorm: 0.000158977534 xtb: 6.7.1 (edcfbbe)
C            2.89290886459621       -1.00611896606218       -0.24602496136694
C            2.10558000683947       -2.21598144597583       -0.73457520131160
C            2.06212094839568       -3.35955248698227        0.28067711153648
C            1.41040568689924       -3.00921166708406        1.62052514898336
C           -0.01725039033108       -2.46729451617684        1.52446924470913
C           -1.01718021899135       -3.39957241591329        0.83726520332673
C           -1.28398471582414       -4.71356490920888        1.57298719599970
C           -1.99951076817397       -4.55095726966192        2.92263971786648
P           -3.82275829915610       -4.70003438499281        2.84632215734643
C           -4.24151874327304       -6.30031974707508        2.05365696321717
C           -3.36428988446494       -7.50279603338306        2.41116567276680
C           -3.43187942741477       -7.93736815785089        3.87506596856378
C           -4.78245048140851       -8.52381074628707        4.26945328304266
C           -4.59169839136838       -4.66240190651715        4.51913655037950
C           -3.68685454702678       -4.21533319614090        5.66953333325969
C           -3.43240315991554       -2.70732440836456        5.69335167021401
C           -4.60528396049240       -1.92171345411061        6.26874705455769
C           -4.69413466009850       -3.49891136438427        1.76186458213641
C           -4.94044843480758       -2.08908687602669        2.30502155369325
C           -3.75754271213622       -1.13239305435931        2.14285881316354
C           -3.63795666146579       -0.58373229753238        0.72565806515836
H            2.40352758466728       -0.52899126122249        0.59951286483813
H            2.98105459795894       -0.27092494775438       -1.04202145977041
H            3.89444841143919       -1.30166875159679        0.05717870123794
H            1.09159225138987       -1.90865921695373       -0.99893616132458
H            2.57427395362541       -2.59503129786565       -1.64524149150171
H            1.54412198718052       -4.20987099636488       -0.16955940116398
H            3.08587842307025       -3.68091730654501        0.48382825125755
H            1.42573634172652       -3.89941967957562        2.25434727930040
H            2.01902631527794       -2.25602810785272        2.12246102444966
H           -0.35730791922756       -2.22607303850853        2.53567834211514
H           -0.00157413350828       -1.52969327074599        0.96807800460172
H           -1.95560377844092       -2.86269761001079        0.70085052363759
H           -0.63899287097968       -3.64303438271276       -0.15574254556038
H           -1.86354228878450       -5.36605115066718        0.91569319323685
H           -0.32830268577989       -5.20721057469415        1.75263855210329
H           -1.68625306718793       -5.34442826684811        3.60819774606426
H           -1.73599464575091       -3.60022186968944        3.38713268150250
H           -5.28724391616194       -6.50475508684898        2.30101934392739
H           -4.19453796188843       -6.13096881914670        0.97282280426442
H           -3.68558408831200       -8.33944759718840        1.78691198480808
H           -2.32634493294579       -7.28918865363828        2.15145253043512
H           -2.66959033835941       -8.70237299536158        4.03171481622913
H           -3.18151495720377       -7.09454182008421        4.52551234793706
H           -5.01505841904414       -9.38349135600536        3.64641972289902
H           -4.75803218559675       -8.85493671005524        5.30403956562859
H           -5.59190147365938       -7.80367789382405        4.16683099040750
H           -5.46757200908904       -4.01197785589262        4.45603245931628
H           -4.95550246399034       -5.67375751557167        4.71145474673152
H           -4.16862674599523       -4.50119024683264        6.60662289767848
H           -2.73688030782166       -4.75116519671264        5.62350341595020
H           -2.55243816309163       -2.50969649482683        6.30706159658379
H           -3.21733424574855       -2.35605051512789        4.68092731227097
H           -4.77785822271946       -2.20475482316111        7.30377677186651
H           -4.39309082675360       -0.85653855880275        6.24096027652557
H           -5.52463165865943       -2.09642057813787        5.71388967899258
H           -4.15525352358499       -3.45913110465672        0.81243717181538
H           -5.65896390013643       -3.98326410085734        1.56855221592019
H           -5.79316644555226       -1.66894435187048        1.76780190282086
H           -5.22344733463942       -2.14177131949286        3.35677688704448
H           -3.89560119307810       -0.29246707456953        2.82540078282601
H           -2.83053987296798       -1.63508493070374        2.42508728227287
H           -4.51403508099686        0.00904128817327        0.47589062174485
H           -2.76291360975441        0.05492884979980        0.64331361557582
H           -3.54753464915674       -1.37750350494402       -0.01281897467627
