43
 energy: -63.382265061684 gnorm: 0.000335702713 xtb: 6.7.1 (edcfbbe)
C            0.20840546460007        0.20817754551837        0.20840615226323
N            0.19338833410666       -1.04448323048913        0.91278651299397
C            0.58904471405855       -2.25861649571325        0.39264892848078
C            1.07484587657510       -2.61229868661296       -0.85890893446058
C            1.37410374797367       -3.94474244769531       -1.05911690747699
C            1.19900910880124       -4.89357011026080       -0.04976700979881
C            0.71945212395860       -4.54937487104968        1.19840148351206
C            0.41804946593435       -3.21088384758948        1.41281708602984
N           -0.06004560290828       -2.53453148512562        2.52155482515983
C           -0.19109668528763       -1.23671349671495        2.18777211509942
S           -0.68091291283447        0.09684605496907        3.18051190176353
C           -2.04703136008994       -0.56970991690987        4.12515717283065
C           -2.17922630398017       -0.16524086921559        5.44346753676829
C           -3.27244910557448       -0.60026906453601        6.17317023599195
C           -4.21258468599011       -1.43470857734644        5.59022608280734
C           -4.07182168300083       -1.82564413322688        4.26817654018444
C           -2.99209777495788       -1.38549213933750        3.52138087667210
C           -0.23527573195340       -3.11964286307192        3.83311926883255
C            0.54082126830825       -2.38751858963777        4.90401403420564
C            1.80238000087875       -1.86965975714553        4.64011526723343
C            2.50869418019536       -1.21613382758518        5.63439998823300
C            1.96580128979990       -1.08669467753978        6.90155790308174
C            0.71652201385841       -1.61799494313539        7.17366560382135
C            0.00412092192594       -2.26358408545766        6.17821628781674
H            1.21301468512221        0.63489522891500        0.20608709553026
H           -0.46867727568442        0.90822622688246        0.69578225572821
H           -0.11191307609523        0.04706478761714       -0.82001126465985
H            1.21426256140272       -1.88178183216600       -1.63827953364935
H            1.75354539429395       -4.26273774795912       -2.01678671123376
H            1.44654768669835       -5.92349439060433       -0.25086323660291
H            0.59043905129633       -5.29616876233863        1.96454438850421
H           -1.43918245801708        0.48246817292383        5.88621432956331
H           -3.38643025962046       -0.28531161166819        7.19828690986381
H           -5.06144470048616       -1.77436159042424        6.16232549919740
H           -4.80849099487609       -2.46576802436577        3.80805436998215
H           -2.89581721210279       -1.66741817765886        2.48256153706355
H           -1.29958828900842       -3.14421234309179        4.09104631325830
H            0.12043817478879       -4.15109903766474        3.76850400257169
H            2.24187046832601       -1.97952266256804        3.65785775374308
H            3.48658591828152       -0.81433649958353        5.41923231925662
H            2.51853968082128       -0.57905171307305        7.67627780936737
H            0.29307372316443       -1.52994385704016        8.16202658299079
H           -0.96923974270719       -2.68007165121136        6.39266662750952
