48
 energy: -61.350913241728 gnorm: 0.000560712595 xtb: 6.7.1 (edcfbbe)
C            2.13481880895779        1.75936828845814       -0.58271882427342
C            1.08402839404685        1.00159069922882        0.22012504189361
C            0.96738986928841        1.49170637569462        1.66577996771919
C            0.35934471316006        2.89407803191649        1.79670347527270
C           -1.13721653318118        2.93460581317100        1.43879888675744
N           -2.04294889223083        3.15941620555342        2.62487484400763
C           -1.84889569538380        4.50947527271542        3.26054425411949
C           -2.00580282942219        5.67892633258554        2.32756967746665
C           -0.88617672405487        6.24291423877050        1.72467481654152
C           -1.02221299681107        7.31846483111905        0.86424358086609
C           -2.27641840674293        7.84252879647497        0.60113649105833
C           -3.39211826296090        7.30506372661778        1.22085320265776
C           -3.25800446055392        6.23405675359188        2.08545497029355
C           -3.46095462147498        2.99137989839549        2.23761523364784
C           -1.76880624179192        2.12929531715232        3.65084791125345
C           -1.45167022759338        3.86644069518588        0.23030166298264
O           -2.56867504318605        4.14248510301888       -0.11969998978817
O           -0.35902659661627        4.19965966551675       -0.41847632849383
C           -0.50778688678789        4.93876905970142       -1.64639524626623
C           -0.79036991483371        4.01090247926953       -2.81522606464247
H            1.85942020044327        2.80262465577937       -0.71357173911073
H            2.24203769848089        1.31291813483362       -1.56755892223544
H            3.09976862310045        1.71375851049615       -0.08398553925725
H            0.11918488555666        1.07618500463251       -0.28807522411456
H            1.35690109917763       -0.05472268335273        0.24392181589244
H            0.38264442149904        0.77125771587446        2.24253892752018
H            1.96849056924715        1.51643037799874        2.09915693117618
H            0.53250157663291        3.26208000683380        2.80684887249943
H            0.90458056638708        3.55929883316717        1.13077685404952
H           -1.41555585827206        1.94301034017915        1.05532958944533
H           -2.58023708753907        4.58409734227553        4.06841722722242
H           -0.85113337758932        4.53450551959158        3.70146422587461
H            0.09818302954807        5.85194882033797        1.93711713476220
H           -0.14606900851208        7.74942976590678        0.40483117063815
H           -2.38266424208319        8.67708506719538       -0.07398905351704
H           -4.36875680190808        7.72314864976795        1.03544620711131
H           -4.13278933728653        5.84147783850883        2.58214729352686
H           -3.61449559024532        1.99992758576685        1.81559018789943
H           -4.09292784587624        3.09918191316354        3.11675519999542
H           -3.74359845143091        3.72982609550549        1.49136736213083
H           -1.92965681984009        1.13710563157457        3.23331813501488
H           -0.75018025348555        2.19155148622488        4.02293025797017
H           -2.44786556666393        2.26405401553597        4.49097794746370
H           -1.31492999650690        5.66551729949559       -1.52002749615853
H            0.44620696845990        5.45302748422773       -1.77037576208675
H           -1.74971716902214        3.51676825094013       -2.68380296701190
H           -0.82269912769628        4.59247582678966       -3.73117643658283
H           -0.00913055635720        3.26003292660925       -2.90307976323004
