28
 energy: -30.957344732073 gnorm: 0.000626956212 xtb: 6.7.1 (edcfbbe)
C            1.38759022532155        0.09169352662114        0.71149208267923
C            0.33921928321778        1.08714328385661        1.19522737905237
C            0.52697871574654        2.49039353606812        0.61030210878531
C            0.29456199805634        2.61843544905878       -0.89411032166249
N           -1.13601557779613        2.79507712734368       -1.30623814976404
C           -1.79257579467034        4.01525274027563       -0.73678696231797
C           -2.82241016750213        3.50369977545577        0.28058621755126
C           -2.94018505171771        2.05658639987485       -0.06970834857230
C           -2.02749310088266        1.66784097954602       -0.94364165584360
C           -1.81102321558199        0.36842962992353       -1.62196462893238
H            1.33229993871754       -0.08335692126721       -0.36129851351980
H            1.24703010533214       -0.86335709043758        1.20945310296776
H            2.38734405310085        0.44928623860004        0.94391681546431
H           -0.66198632036066        0.71097393558733        0.98493486135731
H            0.42804481805728        1.17349584686507        2.27882561621048
H           -0.10635649753933        3.19339791465773        1.15003608008136
H            1.56083307868930        2.78949214153583        0.79316767619919
H            0.83240100888696        3.49055894077901       -1.27258170856194
H            0.68227949327777        1.73568078886667       -1.40394314441815
H           -1.11115498998373        2.86558896947279       -2.32766394380029
H           -1.04507959050202        4.67153572229447       -0.29566538264989
H           -2.29330759678060        4.55244019707329       -1.54237301467352
H           -2.49686900397222        3.62609723092558        1.31519802343249
H           -3.77932969519287        4.01440842990316        0.18005875111863
H           -3.69300253747489        1.42522573321919        0.36213799673960
H           -0.87422016683839       -0.09965261157250       -1.32336689646403
H           -2.61943817442093       -0.31035656514569       -1.36653178313773
H           -1.79775523718784        0.49353865061859       -2.70493225732103
