27
 energy: -32.103459506453 gnorm: 0.000610910748 xtb: 6.7.1 (edcfbbe)
C            1.26493161757157       -0.19181219433851        0.16857767069653
C            0.49771745461251       -0.15629045514123       -1.16102383105398
C            0.64805582028107       -1.41494113691238       -2.02152324032102
C           -0.34545858940791       -2.52371163911272       -1.68524521909400
N            0.73897966403389       -1.18864045732936        1.08512654546230
C            1.38753393550749       -2.34206535777142        1.27198992513973
C            0.89462310414691       -3.34093585595446        2.09919405488648
C           -0.32158715988739       -3.09909000552453        2.74431599437944
C           -0.97759828495450       -1.89613460472314        2.54392930853738
C           -0.42118202130745       -0.95239858540760        1.70385150533271
C            1.62648208996070       -4.62163931553126        2.28246579059068
H            1.19412508165365        0.78782684125245        0.64728217345883
H            2.31674136494985       -0.40857107372460       -0.02385682536979
H           -0.56091695824500        0.03168433884593       -0.97443179986075
H            0.89024213632801        0.69845369194593       -1.71278828436495
H            0.48439995694593       -1.12822892253995       -3.06076133476172
H            1.66980134376550       -1.79337853931830       -1.95255066257349
H           -1.36473755588496       -2.14672339559547       -1.72928069071846
H           -0.25613198333877       -3.32485412276694       -2.41373727387354
H           -0.17825754813787       -2.95404620093539       -0.70013218460570
H            2.32135455244806       -2.47379812554500        0.74498420888969
H           -0.74133449244366       -3.84997291063735        3.39580507734832
H           -1.91389519559737       -1.68653760669726        3.03532451510671
H           -0.89647480044000       -0.00051106641246        1.52236242216995
H            1.80725630636301       -4.80494124021456        3.34015173872874
H            1.02411162509630       -5.45056507336936        1.91222465771675
H            2.57670853597993       -4.62030698654156        1.75737575815215
