18
 energy: -31.185745463461 gnorm: 0.000656743199 xtb: 6.7.1 (edcfbbe)
O            1.43776824493754        0.65873882285800        0.50104325150147
N            2.43399887493135        0.08167395820867        0.16657203609250
O            2.86595055387446       -0.95915443301291        0.58526524016625
C            3.20254669727164        0.73475306560601       -0.87548011690916
C            2.92942903569123        1.94394015101256       -1.46707240038502
N            3.90267046633448        2.16714332574650       -2.37811016398818
C            4.74531188105547        1.12992847034400       -2.34744630575570
N            4.34852613375374        0.24145950498318       -1.44428022647458
C            5.00940109761187       -0.99828169358613       -1.13606496718723
C            4.01830386591765        3.32047498085647       -3.23165222991846
H            2.11374759788551        2.61541101382030       -1.27575424442555
H            5.61809315814929        1.03059706955620       -2.96631884103166
H            5.87479268169724       -1.11873534516580       -1.78330247326337
H            5.32662651759764       -1.00987818366301       -0.09196232467926
H            4.32658404423179       -1.83775466937040       -1.27433670310179
H            4.94066544068331        3.86102078206828       -3.01596613120229
H            4.03036268145655        3.01749233048848       -4.27892880242683
H            3.17291102691923        3.98369084924959       -3.06433459701113
