53
 energy: -54.771263285125 gnorm: 0.000304472447 xtb: 6.7.1 (edcfbbe)
C            0.67430435498529        0.48915768569002       -0.77885005654614
C           -0.42666701657563        1.07842283480728        0.10830045988164
C           -0.01711717524114        2.44050155939145        0.67539162113417
C            0.13772499771063        3.51528304321765       -0.39457567889152
P            0.33632880569364       -1.20085549830528       -1.38758448610311
C            0.93908603384254       -2.44405747446815       -0.18528915536999
C            0.30345931438828       -2.49813911744212        1.20704915648595
C           -0.99498108245844       -3.30297626795009        1.28890731951226
C           -0.79648152415385       -4.79164585272816        1.02689262123842
C           -1.45037050829606       -1.39436890187487       -1.71387590026752
C           -2.01592482902312       -0.46640841138460       -2.79985954892101
C           -2.04280799652865       -1.09645121763168       -4.19421582016499
C           -3.10244968649788       -2.18388030312856       -4.32948662943610
C            1.32962647076487       -1.58134921213691       -2.88098661417309
C            1.52802771691177       -0.42930467194791       -3.87388734398959
C            2.82354706655720        0.34777062467310       -3.62175015715811
C            4.05945847107439       -0.40989903655708       -4.09317294496732
H            1.61870388075357        0.44635835618733       -0.22670392901430
H            0.82255521532892        1.13122147419745       -1.64962274802635
H           -1.34380547905718        1.20256674410458       -0.47021316301108
H           -0.64285416804847        0.40523986553521        0.94004541050809
H           -0.78764179551128        2.75530150088970        1.38058525899646
H            0.91643706115622        2.33996701721430        1.23230885396531
H           -0.75856379015444        3.57954043761206       -1.00752374355090
H            0.29278516910107        4.48178854330073        0.07566459366391
H            0.99121613136249        3.32240965975291       -1.03996410481083
H            0.86341862893765       -3.42053192032427       -0.67214433150773
H            2.00642557951567       -2.21379848404344       -0.08472125944255
H            1.02714031711974       -2.96507960028526        1.87876123036769
H            0.13238112789950       -1.48633099473356        1.57840022522756
H           -1.39526275306368       -3.18048609803901        2.29665767441119
H           -1.73638898696765       -2.90760115126726        0.59341927326152
H           -0.04260089179131       -5.19986413456690        1.69507621848022
H           -1.72674796697967       -5.32436467032898        1.20210780372326
H           -0.49139445192458       -4.98836216756692        0.00141912471219
H           -1.62596510432937       -2.44153095305928       -1.97319733647257
H           -1.94568619836874       -1.20035573939555       -0.75849924803320
H           -3.04062352582778       -0.20416488628970       -2.52981593736072
H           -1.44445546208136        0.46435885906828       -2.83087747612081
H           -2.26121441126994       -0.30915420923943       -4.91746251020548
H           -1.06321561672293       -1.50692298844051       -4.44285635306293
H           -4.08851811682242       -1.78526035858951       -4.10492377891895
H           -3.11547126536842       -2.56412880948684       -5.34693914128581
H           -2.91280107005315       -3.02232439886284       -3.66290383171771
H            2.30358980600589       -1.93715456797247       -2.53436518779805
H            0.82907158940993       -2.43100638779044       -3.35540826883294
H            1.56977601661096       -0.83913497631867       -4.88435782482701
H            0.67510961767947        0.25121987122381       -3.84238901327651
H            2.77110330723845        1.29464140517611       -4.16106332729364
H            2.92372354667564        0.57555418304638       -2.55786309158291
H            3.99986276932281       -0.60733264986639       -5.16032953434999
H            4.95202826854199        0.18083943991474       -3.90779928666014
H            4.17313960853379       -1.36010699298490       -3.57617808240685
