34
 energy: -48.604173328451 gnorm: 0.000830095763 xtb: 6.7.1 (edcfbbe)
C            0.74523386520417        0.49987357151374        0.42847213915212
C            0.47542906112580       -0.30369678623082       -0.58201040234928
C           -0.84522175883546       -0.99570429483999       -0.76742014279766
N           -1.39989053415264       -0.71458619887300       -2.07803735270400
C           -1.34430921232582        0.47243891410606       -2.67444535109698
N           -1.88767595718735        0.38677968103001       -3.88585800760109
C           -2.30703454075099       -0.89720215590553       -4.06809908967601
C           -2.00462115337938       -1.60392170721119       -2.93284011609144
C           -2.23724035498253       -3.01648069800344       -2.65064325739345
C           -2.79284493893816       -3.43397628358867       -1.44152410946524
C           -3.00898349015994       -4.78019116604795       -1.20947901579606
C           -2.67167049508106       -5.71749583323456       -2.17224290507056
C           -2.12980931768340       -5.30667316455465       -3.38011477960421
C           -1.91786823650567       -3.96326702211300       -3.62427647537737
C           -2.11857182532507        1.49440038400802       -4.78415335811936
C           -3.47707830841378        2.15592867365329       -4.48144878827454
C           -3.56135917823173        2.45159665098419       -3.07126829057266
N           -3.55987308211171        2.60842324302716       -1.94055250287826
H            0.01737610497586        0.72407443620043        1.19051210770353
H            1.71322269835442        0.95397594016766        0.54454096927499
H            1.22013795523120       -0.52965842697605       -1.33306016963565
H           -0.71595544257728       -2.07967546382670       -0.68953364289487
H           -1.55110668080039       -0.66758815237449        0.00168248508111
H           -0.92551693177316        1.35720767036523       -2.23644752346385
H           -2.79048673270411       -1.22619238940402       -4.96483550032764
H           -3.09007351433517       -2.70784297442962       -0.69992439909223
H           -3.44471046317794       -5.09676499080615       -0.27490828197236
H           -2.83673345556885       -6.76654164879301       -1.98437758861082
H           -1.87193437374578       -6.03430197327837       -4.13347333882163
H           -1.48573975033646       -3.64103869613256       -4.55942397653442
H           -1.31358479292982        2.22136654717925       -4.65323652102230
H           -2.10514237559379        1.12737155364160       -5.81221664093772
H           -3.57647114625023        3.07867263491455       -5.05637752275525
H           -4.30302164103521        1.49059012583467       -4.74726865027320
