42
 energy: -65.332635549939 gnorm: 0.000714006825 xtb: 6.7.1 (edcfbbe)
F            2.39318737815936       -0.60809438025512        0.12741737602106
C            1.06621992914158       -0.45010088692290        0.11313415183802
C            0.31229077003175       -0.96797692549532        1.15268319942225
C           -1.06079902064011       -0.80571449529323        1.12524907270007
C           -1.67066426132797       -0.12806371176593        0.07708583856828
C           -0.89161670806991        0.38597325902323       -0.95368751371110
C            0.48088745194658        0.22659629153549       -0.94468981089772
C           -3.17094122783425        0.06584208322514        0.05731098276142
N           -3.74955296568935       -0.42454244739672       -1.17484092974528
C           -4.22100569534461        0.32508614365587       -2.16727403782491
N           -4.62160309051413       -0.46139047819919       -3.16219994074840
C           -4.40363151057473       -1.76689203537707       -2.79802453162069
C           -3.84633741222164       -1.74336723674434       -1.54334541610268
C           -3.40145085159573       -2.84762306638785       -0.66383888413867
C           -4.74075802540874       -2.90380921767257       -3.68399500530866
C           -5.24700645615636       -0.02210355734145       -4.39147943508445
C           -6.72996831282906       -0.32185423235386       -4.38749293139919
C           -7.53379753635777        0.17737948367337       -3.36828679319300
C           -8.89037605428898       -0.08349254465100       -3.35058950286128
C           -9.43518613692805       -0.84839970655535       -4.36954776989894
C           -8.65670047864844       -1.35239818830842       -5.39765349465239
C           -7.29950872265434       -1.08647094466487       -5.39795625966813
F          -10.74592828700497       -1.10741594040681       -4.35639106501772
H            0.79988595885582       -1.48480130056566        1.96311549191592
H           -1.65705155176663       -1.20136403859516        1.93360697961763
H           -1.35593039037556        0.92146554350079       -1.76921472049616
H            1.09878592809035        0.62293175981290       -1.73403134035160
H           -3.62640735158391       -0.46347663813134        0.89768091181985
H           -3.41320909798516        1.12859038381123        0.14250125288938
H           -4.26937329747672        1.39637041254643       -2.16534668836406
H           -2.32959960123652       -2.78425722576959       -0.48223043641885
H           -3.90965075657374       -2.80274429112375        0.29806466843239
H           -3.62063994934816       -3.80573602161131       -1.12211523942392
H           -5.79703667187009       -2.88277095987427       -3.94786457131566
H           -4.15965261597210       -2.85967512412900       -4.60457123020845
H           -4.52323845846557       -3.84441960441422       -3.18917193232531
H           -5.08145415139584        1.05423525906205       -4.48678601588507
H           -4.76553363930691       -0.52570577513971       -5.23275062814962
H           -7.10128687772636        0.78079295436744       -2.58315326414109
H           -9.52742619581815        0.30003883430415       -2.57022795013296
H           -9.11328142611493       -1.93875620909816       -6.17836982186464
H           -6.68524262912354       -1.46919522433910       -6.19900276503859
