38
 energy: -39.344475393026 gnorm: 0.000721110845 xtb: 6.7.1 (edcfbbe)
C            1.37576067102352        0.32248682045302        0.20589792613405
C            1.08832147438551        1.43992681369865       -0.78949921363701
C            1.25696038942890        1.00822149578032       -2.24711724060156
C            0.32396584400325       -0.11799341682985       -2.69826178191118
C           -1.16928134535367        0.19032534916656       -2.56353945471350
C           -1.64526093930024        1.41751457173894       -3.34373480678184
C           -1.36090156924412        1.38402420347691       -4.84974111830969
C           -1.80895004974498        0.14987842057019       -5.63799236101951
N           -3.24943279170098        0.03682386914671       -6.04026675491064
C           -3.70873190359047        1.25768744792088       -6.72604044862790
C           -3.36178068287214       -1.10074595222560       -6.97579734415506
C           -4.12066702487585       -0.22936071270387       -4.88316255788260
H            0.64188255136176       -0.47625802567176        0.13088589684020
H            1.34642486482018        0.70985443426785        1.22099118836315
H            2.36314613636161       -0.09796426706451        0.03040386243747
H            0.08063170693478        1.82634248623544       -0.62419547956184
H            1.78211170992203        2.26211248154305       -0.60331940473958
H            1.12098082987301        1.88115874700775       -2.88999210413187
H            2.28357786144048        0.66384948173039       -2.38807994809347
H            0.56207041475773       -0.36588905310342       -3.73611316478173
H            0.53623979377881       -1.00823399899342       -2.10507627772621
H           -1.73705437785445       -0.69487246787257       -2.86388827869673
H           -1.39833102316704        0.35996999929291       -1.51155651395722
H           -2.70724001325206        1.57264372341926       -3.14294917046996
H           -1.13275664971217        2.29555422707418       -2.94947979135610
H           -1.74469578160750        2.29615299125732       -5.30634158236669
H           -0.27664084184192        1.41654087539623       -4.97155022063961
H           -1.23426542492618        0.12813984071248       -6.56645449195371
H           -1.55982826076479       -0.74550844561823       -5.06731972616938
H           -3.01510482768772        1.52632482330402       -7.52055805035304
H           -4.69171800741306        1.08990578540519       -7.16206534096759
H           -3.78294756455924        2.08532305172825       -6.02481595413923
H           -2.98028068675930       -2.00937710422179       -6.51353748063625
H           -4.40341210031118       -1.26144823019600       -7.24776833386559
H           -2.79338881653490       -0.90570994000812       -7.88324761376449
H           -3.80546065607316       -1.13754384540750       -4.37433928672320
H           -4.08158736346909        0.59703690779470       -4.17977409542950
H           -5.14999554547013       -0.35485338820204       -5.21411348070208
