37
 energy: -54.184592491567 gnorm: 0.000704725972 xtb: 6.7.1 (edcfbbe)
N            3.32130724573084        2.29993345285760        0.56982141081565
C            3.25253144062699        1.28070730728399        0.05440251639005
C            3.19637258092169        0.02659683393809       -0.64817430824154
C            4.33985154023309       -0.11437315939623       -1.66339679229641
C            4.32195459485626        0.94928553667431       -2.76870356002917
N            4.55259719566256        2.27912178161044       -2.24432851374631
C            5.59903972966104        2.63013167540086       -1.49976349245563
N            5.44776099763320        3.88357443496369       -1.08723843589490
C            4.28089130269360        4.35914539770076       -1.60421077875275
C            3.70792953525011        3.35814700588123       -2.33785453792618
C            2.46519978616911        3.37601927111069       -3.11851153694730
C            1.33598010121155        2.69139283806485       -2.67822944518672
C            0.17099160363106        2.72945154706632       -3.42337189143972
C            0.12571307502480        3.44647797422530       -4.60763537006063
C            1.24488336936462        4.13713717166441       -5.04314866115819
C            2.41246103012462        4.10719031140169       -4.30219313128218
C            6.28397490629855        4.54696240248280       -0.11367740764521
C            5.97820961980263        4.00793442819266        1.29656235264738
C            6.25726464044280        2.59471388862361        1.35499215224541
N            6.47254974132924        1.47363547703547        1.30926561167227
H            3.27017915959676       -0.77505982372493        0.09195497387765
H            2.22560376009071       -0.05968369126270       -1.14528122747998
H            5.29254383406270       -0.08692769964384       -1.13157620225472
H            4.25303501443099       -1.09025688607999       -2.14221453329798
H            5.10182699879072        0.71777495664004       -3.50040813333808
H            3.35677274310556        0.96086992347691       -3.28098727214649
H            6.43251576970014        1.99914197612168       -1.26198766268681
H            3.92234897071077        5.34995557019488       -1.41542671207977
H            1.36327333011641        2.16529609994055       -1.73614298133874
H           -0.70397585843429        2.20349849764351       -3.07453353406961
H           -0.78417618591398        3.47406245225587       -5.18603748262862
H            1.20888501977593        4.70402239514080       -5.96000745820294
H            3.28632310586299        4.64451007768339       -4.63842660717488
H            7.33404421256401        4.37044983824350       -0.36309329991957
H            6.08227546911755        5.61872424416628       -0.15243707258754
H            6.59227306270810        4.52972152308397        2.03303813616714
H            4.92296755703315        4.15360496932759        1.54414088846019
