45
 energy: -56.253213137167 gnorm: 0.000286521734 xtb: 6.7.1 (edcfbbe)
O            1.62964045408432       -1.57250192482005       -0.66768910362887
C            2.59218941071274       -0.90030012729203       -0.37096572690872
C            3.03848255301407       -0.70272466757802        1.00937651461904
C            4.20177726152187       -0.01331095349159        1.37102128908711
C            4.55048615445222        0.10066751793594        2.70207424657615
C            3.75274894963056       -0.46022546957473        3.68989341269179
C            2.59571561106252       -1.14152691860046        3.34441098163885
C            2.24212855024180       -1.26371210409023        2.01654056796132
C            3.43929348670458       -0.20988921486189       -1.45892271341114
N            2.93518394004134       -0.36324423618472       -2.84557294372884
C            1.52536467668430        0.12914675001949       -3.03170038681081
C            1.05677656981253        1.50744552708540       -2.52250077240377
C            0.76632638826287        1.58766793735855       -1.01951758386554
C           -0.04261703343246        2.85202491831409       -0.72939819745902
C            0.72189389359884        4.09188969159054       -1.18242274978859
C            1.06557848201004        3.99933101628672       -2.66553644702328
C            1.86891504787004        2.72983207659993       -2.95623161100568
C            3.86441789907980        0.33753127098074       -3.75432587815241
C            2.95304922695075       -1.79610568896575       -3.22059501160440
H            4.84759539837031        0.42848585299368        0.62808561510887
H            5.45175257234725        0.62771100325891        2.97433759993763
H            4.03665265514601       -0.36633280737732        4.72654653708453
H            1.97389028140952       -1.57829690266090        4.10981953896064
H            1.34702143416058       -1.79317716838678        1.72771841321609
H            3.50805867625280        0.85415287912205       -1.23201083420975
H            4.44446488266295       -0.63876158098584       -1.41350724726850
H            1.34923591776114        0.09429629355499       -4.10899918752331
H            0.87767760142331       -0.60966377045910       -2.55541455140698
H            0.07871969151155        1.60292786176890       -3.01292646599903
H            0.20107060352129        0.71126508913145       -0.69950323765617
H            1.68329177812789        1.63188467147233       -0.42954134258815
H           -0.25095270815172        2.91340572396113        0.33901874712764
H           -0.99874963696412        2.80114371940828       -1.25280812759515
H            1.64083795925716        4.18749604854947       -0.59911815761036
H            0.12118618595832        4.98260168888042       -1.00041839479672
H            1.64386377787420        4.87280797758746       -2.96889914572401
H            0.14614535782685        3.98831213194451       -3.25321960197537
H            2.80775461592284        2.79590526744577       -2.39960052968239
H            2.08905347603514        2.68579095439715       -4.02486027995744
H            4.85517685008080       -0.11071834601447       -3.69166755511657
H            3.51370115478234        0.25337532330534       -4.78111672858113
H            3.94119421226391        1.38951296916094       -3.49772011291935
H            3.96524895183303       -2.18899571068327       -3.14169423449022
H            2.30071377924957       -2.36474656378291       -2.56075594779770
H            2.60948300899756       -1.91579800626327       -4.24584265531561
