54
 energy: -63.843142784891 gnorm: 0.000493980856 xtb: 6.7.1 (edcfbbe)
C            1.20356416402668       -0.08043374862698        0.27590193004234
C            0.84791455161492        0.36582062719476       -1.13731218560879
C            1.25703223692169       -0.64421016850589       -2.21068052525560
C            0.59853315461410       -2.01986427253101       -2.08754660271194
C           -0.93076498352144       -2.01207482559023       -2.13126347954941
C           -1.53800876464902       -1.40256686670846       -3.39638558558685
C           -1.11057617431424       -2.07072125926026       -4.70459820066131
C           -1.43466732115527       -3.56259946118101       -4.80280569037026
C           -2.91805930553862       -3.91322754216587       -4.65993656628152
C           -3.84702177149736       -3.20997185431021       -5.65350531542251
C           -3.50628089447531       -3.43666545009856       -7.12591968961519
C           -3.68342453212657       -4.89009403015473       -7.58750051855676
N           -5.08694889894950       -5.25690837308188       -7.58150372330199
C           -5.85803682430705       -4.89463789069491       -8.63883753794777
C           -7.19704627415459       -5.14112594157038       -8.65789598667107
C           -7.82024433643202       -5.78010458876635       -7.56315031487969
C           -6.99026718280841       -6.14859263184391       -6.46033891350720
C           -5.62398797581089       -5.85483689861630       -6.53176211546631
C           -7.56587972101537       -6.79322474506177       -5.34240113181813
C           -8.90776468769441       -7.05826428681650       -5.32719217004410
C           -9.72361114464812       -6.69502494632138       -6.41382803342835
C           -9.19502990889152       -6.06791901448364       -7.51253633531248
H            0.62634212112261       -0.95330799657092        0.57053423054136
H            0.99442489622352        0.71679377059947        0.98554655642955
H            2.26086244180886       -0.32751204442043        0.34196144295247
H           -0.22424494154376        0.56201151901110       -1.19839282421194
H            1.36108673533656        1.30722255365438       -1.34841754227499
H            1.03421510065783       -0.22035375363077       -3.19246782073004
H            2.33953887598293       -0.78534816872525       -2.15911942779464
H            0.98209740211667       -2.65514250504189       -2.88937994573343
H            0.90713271141465       -2.47823452858290       -1.14636575529479
H           -1.28180530998752       -3.04071054446205       -2.01691595130833
H           -1.30890110938537       -1.45264177168395       -1.27393501928313
H           -2.62669035358650       -1.43748575230417       -3.30580034313098
H           -1.25926540836763       -0.34915975538053       -3.45178948838258
H           -1.58086394451398       -1.53631672966187       -5.53367660261813
H           -0.03283049395943       -1.95500061139895       -4.82583439405664
H           -1.05752599433250       -3.93732230218323       -5.75796230075662
H           -0.89102215619379       -4.09480744180170       -4.02127808270082
H           -3.01893182116976       -4.99913754549007       -4.74749392503713
H           -3.24826309338823       -3.64868657531176       -3.65483150100742
H           -4.87841267229009       -3.52344686572879       -5.45912417632533
H           -3.80597769054125       -2.13706630690325       -5.46682586028803
H           -4.13364291596244       -2.78904758517846       -7.74254998365836
H           -2.46918505044759       -3.15739922386572       -7.30513240481486
H           -3.29724592664935       -5.00309784314599       -8.60227127305117
H           -3.13272794866840       -5.56024778695377       -6.92716543659979
H           -5.35376228543103       -4.40883555794333       -9.45939810404236
H           -7.78610665560891       -4.84916290441107       -9.51302449203393
H           -4.96768454697436       -6.12797744914942       -5.71734296494356
H           -6.93517754481776       -7.06933761379427       -4.51155259471068
H           -9.35229669125263       -7.55109291944766       -4.47665589245917
H          -10.77880203911644       -6.91677043085414       -6.37522043871751
H           -9.82056709565202       -5.78968916008221       -8.34603899194835
