33
 energy: -38.427060053711 gnorm: 0.000686784396 xtb: 6.7.1 (edcfbbe)
C            2.62860222880260        0.97872909241291       -0.63649560999611
C            1.32333697351355        0.31816398379478       -0.32873100252246
C            0.14453746614087        1.05466956406308       -0.34107285808302
C           -1.07370120142308        0.45281929745211       -0.04941174911309
C           -1.11190095870155       -0.90580723714580        0.24291858002698
C            0.05404407780804       -1.66120489744786        0.26472950267724
C            1.26077463330432       -1.03280641383790       -0.01525655544956
C            0.00218611636731       -3.12760287024753        0.54900717877863
C           -2.34648349278324        1.25749898568088       -0.09119047929944
N           -2.72420397025100        1.88134111228667        1.22576081549855
C           -1.65837471540087        2.78902454845519        1.68222141042178
C           -3.97076112101386        2.64589885381195        1.04665677537214
C           -2.93675934845688        0.83597601106119        2.24080239977200
H            2.51640962170544        1.70319716269529       -1.43982630518315
H            2.99718884526367        1.50805837559911        0.24264799081142
H            3.37607210764317        0.24561431247739       -0.92528668387106
H            0.18363008350855        2.10154142107184       -0.60668570649874
H           -2.05709353970853       -1.39505902997794        0.43073890371653
H            2.17035704003429       -1.61424985018050       -0.00653715870007
H           -0.79428912467118       -3.36573380749783        1.25083817393092
H           -0.19215294529983       -3.67283388657323       -0.37523139034834
H            0.94822231678927       -3.47965639826818        0.95202828920599
H           -2.24501856261748        2.06708410722681       -0.81681404449306
H           -3.17660578544606        0.61767066042662       -0.39743797681703
H           -1.50251991643640        3.58163738546412        0.95269094664268
H           -1.93282803897407        3.23912910053324        2.63451725370966
H           -0.72869164758906        2.23595150082485        1.80501640995085
H           -4.77247118424006        1.99023551015181        0.71094443144904
H           -4.26773767352160        3.10513414396089        1.98819390129272
H           -3.83029184202864        3.43093666807823        0.30550428044823
H           -3.73932216165583        0.16934619363420        1.93034415727076
H           -2.02531514881025        0.25445495136297        2.36950625429166
H           -3.20693913185237        1.28850144865649        3.19316986510633
