44
 energy: -83.816491981974 gnorm: 0.000183999447 xtb: 6.7.1 (edcfbbe)
O            2.83326650022013        2.02372439598049        0.65284000194007
C            3.46845209453139        1.11165971293371        0.18264046927563
C            4.06264543859360        1.13150393960690       -1.16071987770768
C            4.67434610394082        0.01948497245925       -1.74973518560308
C            5.18660989675403        0.11321322194735       -3.02820337709969
C            5.09221366590394        1.31656652048164       -3.71566957961912
C            4.49202927482816        2.43253640547998       -3.14928935041169
C            3.97697056970816        2.33466324325169       -1.87328499540209
N            5.63437129131042        1.40539853144657       -5.06887777710155
O            6.12234777036754        0.40190117089777       -5.52739569627373
O            5.55079445381428        2.47396217525587       -5.62087956555921
C            3.66016557596322       -0.17674191063821        1.02427721363389
N            3.15813231743039        0.06310683824420        2.34671818488020
C            3.87169807081806        0.08236652155007        3.50896809506679
C            3.03386067155919        0.51149751663150        4.49009134611824
N            1.82887406557603        0.77396576138964        3.90754228159659
C            1.92519894824015        0.49064596783136        2.61040656430083
C            0.60213712429127        1.11786286817053        4.56749924708986
C           -0.43466275713597       -0.00455491872636        4.30443966060324
O           -0.15839953656676       -0.88012695789947        3.52133919064416
C           -1.71432092157273        0.08350142729467        5.02095625562679
C           -2.59888981289262       -0.99270746658341        4.87361086725816
C           -3.83002645224951       -0.97912423270932        5.49602158995281
C           -4.17811693964078        0.12189466886139        6.26607405433063
C           -3.31746120291295        1.20064438813667        6.42449447097146
C           -2.08409597576993        1.18197317134870        5.80475662095026
N           -5.48216135907891        0.15217595270399        6.92286311873997
O           -6.19074288451268       -0.81177807502832        6.77342190000627
O           -5.74725184342236        1.13991857275294        7.56279280631729
H            4.74599296428059       -0.92215943109020       -1.23013782270503
H            5.65900448060412       -0.73035650866941       -3.50887001450213
H            4.43616640040415        3.35053002267646       -3.71464934782217
H            3.50060192895498        3.18176269403600       -1.40409471058688
H            3.09951363251928       -0.98625862577930        0.54675322450521
H            4.71514462073492       -0.44759271146470        1.07973525125632
H            4.90026451382990       -0.21071242774897        3.56306256135746
H            3.21520378586123        0.65129590036454        5.53619934692110
H            1.13537962020356        0.58980917220848        1.89283601668540
H            0.78392006586304        1.23000564205421        5.63706354939869
H            0.20560286496768        2.05470726649113        4.16407383967075
H           -2.29787211707203       -1.83111843086494        4.26441141610866
H           -4.52558259332431       -1.79858703998751        5.39529483130729
H           -3.63079451464038        2.03786075466558        7.03003980195484
H           -1.42900980111744        2.02897933999089        5.92820352208665
