23
 energy: -31.605813918094 gnorm: 0.000329486657 xtb: 6.7.1 (edcfbbe)
N            1.49645013334261       -0.26922315925977        0.79943774949328
C            2.57407580095314       -0.05599655113527        0.48708426130558
C            3.93867897120275        0.28375363495361        0.16247310475135
C            4.09028900885736        1.78816357482927       -0.10842162006806
C            3.41803050691903        2.66861727664938        0.95379215782084
N            3.95501816257129        2.45575514268059        2.28065526000442
C            3.45851953163892        1.55496977220230        3.18500175460640
C            4.22758715477965        1.63222657776330        4.30043465008273
N            5.17936986057837        2.58067511345019        4.05352372452102
C            5.00577239934666        3.07670762343416        2.82368142307180
C            5.82067100990765        4.13870536841151        2.20436963630383
H            4.57399164437964       -0.03578689927360        0.99477474134514
H            4.23880885644994       -0.28108951259642       -0.72298698415380
H            5.15240813043893        2.02546018894998       -0.18589183641443
H            3.62285367642303        2.03079164562429       -1.06346868010070
H            3.54466653984050        3.71971891813988        0.68679693064728
H            2.34979011749513        2.44194238101767        0.98839804392578
H            2.60562965271353        0.94205538306219        2.97072626572419
H            4.16559814033122        1.09740201858448        5.22542227473264
H            5.89609351632093        2.87011972552250        4.70471818317390
H            5.20405334983017        5.00663912725204        1.96792633437433
H            6.61028368465392        4.45438007296249        2.88043664768224
H            6.27690015102661        3.79704257677452        1.27625597717219
