33
 energy: -35.174983258167 gnorm: 0.000781931119 xtb: 6.7.1 (edcfbbe)
C            1.52382696142936        0.19856795548353       -0.38764955984503
C            0.97840981983854       -0.32146338179278        0.93763494762776
C            1.20082598997019        0.64746474503449        2.10261894249817
C            0.48476610825262        1.99393404517226        1.96552801844881
C           -1.04477314313969        1.98013064197245        1.93292508632434
N           -1.76679212519370        1.59811868920311        3.18665402037214
C           -1.20273822478672        2.31193866035154        4.34642700533273
C           -1.77095856153281        0.11668787376010        3.44493838447301
C           -3.23416287789751       -0.32220817022132        3.56449362179040
C           -3.97159644296632        0.97152817444561        3.89363683737435
C           -3.20988578623937        1.97441056171121        3.04303142403336
H            0.95785662937841        1.05373677908107       -0.75000656618846
H            1.46691050565483       -0.58069201531678       -1.14236033892387
H            2.56507039041828        0.49190490238307       -0.28188791325674
H           -0.08227324440619       -0.55916521957589        0.81724344253366
H            1.48794862328679       -1.25488059981708        1.18207752312535
H            0.93206117677602        0.16013001693922        3.04211894119302
H            2.26998799236061        0.86089265615972        2.15576070904409
H            0.83942194240194        2.66822361487587        2.74496768107502
H            0.78905668445698        2.43813864799125        1.01644127662696
H           -1.37417812246500        2.99256177415309        1.68527759723443
H           -1.38865998016754        1.31067338270136        1.14263907502966
H           -0.20193891715027        1.94828918156232        4.56687067586140
H           -1.15308673209408        3.37962126874050        4.13871687893302
H           -1.83241523258211        2.15117508910156        5.21891271522753
H           -1.23143466865138       -0.08295652677702        4.37003506867876
H           -1.26580671547001       -0.40243558060573        2.63370977692123
H           -3.59388167517766       -0.72653268477236        2.61854585082069
H           -3.36316772371682       -1.08543907040622        4.32732985328503
H           -5.02368814939925        0.93305267389332        3.62437990540539
H           -3.90293671780378        1.20803932306603        4.95526795844852
H           -3.49820964751801        1.85507062465560        1.99692369485638
H           -3.36137813586243        3.01212196684743        3.33617746564038
