34
 energy: -50.548073169516 gnorm: 0.000851453558 xtb: 6.7.1 (edcfbbe)
C            0.61603505860643       -0.11949667928231       -0.02926619963004
C           -0.27365796895536        0.50035269154783        0.72025234839782
C           -1.69852243889933        0.04116995323701        0.88043852067565
N           -2.01141228194858       -0.16093190753229        2.28170618862347
C           -2.69912864287870        0.65238915102891        3.08226670697620
C           -3.32942578074948        1.93237455320160        2.59946534376292
O           -2.41233628807865        2.74176248056224        1.93415864333223
N           -2.73475612769292        0.14962320453979        4.32953124537329
C           -2.02099177607355       -1.03621750962833        4.33607247773683
C           -1.55678044454250       -1.23078185431316        3.02478335771672
C           -0.79483164100732       -2.34133447649373        2.68378270203681
C           -0.52184973844981       -3.24330462792292        3.69122011497758
C           -0.98655412238497       -3.05176769072810        4.99522337883332
C           -1.74013751048613       -1.94949798188639        5.34432775755780
C           -3.27705628983267        0.76827782202321        5.51852713281117
C           -2.20125336183115        1.61646878946746        6.22868930207190
C           -1.62001073376216        2.52562128585111        5.27654638509118
N           -1.19913522378989        3.17700742299079        4.43669493666014
H            0.37997298393559       -1.01444862035328       -0.58156495735460
H            1.61647697798207        0.25831184622675       -0.14185778173529
H           -0.02973320901164        1.40903528704703        1.25117228021071
H           -2.36638076128373        0.80477994372413        0.47814537642869
H           -1.86052870864188       -0.90231167221881        0.35403551204271
H           -4.10781226694390        1.67927599595680        1.86695383008729
H           -3.80908348106066        2.45708450772238        3.43234284056660
H           -1.84508116418747        3.21272493071477        2.57056426459012
H           -0.42889922775178       -2.48826802289106        1.68196832204773
H            0.06604320603620       -4.11961623891206        3.47066878113414
H           -0.74720502830643       -3.78489461929816        5.74873580930273
H           -2.09148387487342       -1.81635135794589        6.35459775609288
H           -4.13299394798322        1.38929269308362        5.24799966709224
H           -3.62416127999977       -0.02166492846780        6.18744848976015
H           -2.65012747735486        2.17931105647915        7.04978229798718
H           -1.40918742779697        0.98026457246845        6.63306716873979
