69
 energy: -107.292881000860 gnorm: 0.000395152745 xtb: 6.7.1 (edcfbbe)
O            1.51806469040583        1.28706633285039       -2.27519206315660
C            1.48840061854649        2.38065046519633       -1.40294766911762
C            1.30116922305793        1.97621228287602        0.08265253654968
N            2.56085274160911        1.89192123971145        0.78780644713700
C            2.97946215924844        2.74406503967507        1.76493491814068
C            2.19552840402652        3.55332929809198        2.59762628954531
C            0.86950660013288        3.35548447996938        2.93782752350767
C            0.20573044286850        4.18979822365019        3.82535828264075
C           -1.10004966943968        4.11346503099146        4.30537773596476
N           -2.15844214479992        3.38465904537078        3.84176598767855
C           -2.23953271902003        2.56899922456515        2.65429528952905
C           -1.98825351752142        1.09314674881386        2.95397232481413
C           -3.25001960075877        3.62018505345785        4.65337716263342
C           -2.84744905768004        4.54416053487773        5.63402492442049
N           -1.53077885901997        4.84635870850037        5.38047877793433
C           -0.72543729843611        5.71179263749745        6.21003029255302
C            0.08637307869200        4.91665314925393        7.22847653174860
C           -3.72668673627104        4.98180047590045        6.61434220673907
C           -5.01423757908275        4.48396723371116        6.58624435871447
C           -5.41623449991898        3.56985609790139        5.60353066321219
C           -4.53672167174928        3.11873911764329        4.61917328002127
C           -6.74759499741036        3.08594201934914        5.60690381416494
N           -7.82198913748577        2.69033516099359        5.59891108837428
N            4.33787534949026        2.64821794051293        1.87277553803481
C            4.79143648192212        1.71402753921436        0.96809897099058
C            3.66560853329221        1.22219749753592        0.28733506889623
C            3.78156876629641        0.23113698552680       -0.66849533177112
C            5.06536369832349       -0.24272262052861       -0.93101138325477
C            5.23612566324494       -1.26612123784623       -1.89613164970231
N            5.37440597951777       -2.10028077562807       -2.66784587106883
C            6.19082254744803        0.25892411795671       -0.26264351505930
C            6.06808263259161        1.24566537088259        0.69441828954580
C            5.21355165741888        3.51281463353244        2.61968869172331
C            5.68603621840032        4.69178373015193        1.75494617535706
O            4.63404728111852        5.61570130945976        1.49875345548031
C            3.87248018971027        5.42436718300272        0.40980922442359
O            3.97888955744479        4.47033240584527       -0.31671742158589
C            2.89571360635224        6.54753453541982        0.23570801704526
H            0.62453579070995        0.98504258880063       -2.47161521665899
H            2.44498980589740        2.89886134128896       -1.51447960365941
H            0.68757443881946        3.07622676964566       -1.67850293068042
H            0.69902306656640        2.73908726659911        0.57183973599499
H            0.78681729089122        1.01051602100461        0.13569639732357
H            2.70373837870731        4.37458118412264        3.08034108350654
H            0.38148884348897        2.46300948403601        2.58413915999343
H            0.79833922628885        4.98994963330248        4.24349688791593
H           -3.24546710665478        2.69066005510653        2.24310349927694
H           -1.53160541313178        2.95511567534199        1.91837195691055
H           -2.73300510757798        0.71894817379784        3.65154229034000
H           -2.05599604117576        0.51388177903779        2.03750292877115
H           -1.00648217697256        0.94065999221063        3.39635981357848
H           -0.06739319516609        6.30962223604238        5.57495680136758
H           -1.40278227637700        6.39666788343709        6.72254144862016
H            0.76037878696261        4.22554373841110        6.72793609113052
H            0.67299793260580        5.59485745156904        7.84067523933524
H           -0.57381927669976        4.34731434108431        7.87800026266330
H           -3.42803043948152        5.68076474016587        7.37812698861957
H           -5.72930387897138        4.79683443331253        7.33076082414776
H           -4.86823721637997        2.40865023554484        3.87870173595817
H            2.93539110251063       -0.15008542012806       -1.21415181748912
H            7.16390341450158       -0.13788844254712       -0.50676143689507
H            6.93760999014446        1.62750039188211        1.20437640704176
H            4.69940896899904        3.88153561164290        3.50856948678437
H            6.08469186017448        2.93560421882237        2.93591777404098
H            6.45516762547448        5.25708671796470        2.28359577046032
H            6.07711026541685        4.31815899384343        0.80222491434025
H            2.71917701424024        7.04926140910048        1.18161808284690
H            3.32356338130269        7.26372167393155       -0.46455718353611
H            1.96883631246630        6.17298360557517       -0.18936635473970
