37
 energy: -54.612841033801 gnorm: 0.000339686627 xtb: 6.7.1 (edcfbbe)
C            2.31910405450167        0.14901596792708        1.60363576396113
C            1.49404414997849       -0.77402465294847        0.77829626660253
O            1.50998028298896       -0.85758638102507       -0.41797853467020
C            0.53821776617428       -1.68549119856322        1.59102219920801
N            0.08088625506960       -2.74651687251859        0.74159784502295
C           -0.53268653060521       -2.54543161534591       -0.42510925146000
N           -0.62482530709314       -3.67033181450621       -1.12150917534270
C           -0.03154521794954       -4.67405478910220       -0.38530818648710
C            0.43658025757795       -4.08038779601017        0.80363729124037
C            1.09877587397542       -4.82632156813003        1.77058730303390
C            1.27852833193117       -6.16939851734972        1.51187575333806
C            0.81544924160353       -6.75934759460149        0.33250497532756
C            0.15502648349253       -6.02932816819718       -0.63325453470907
C           -1.30735519297652       -3.80721164437234       -2.39249085039900
C           -2.80519630181538       -3.72093087696559       -2.20007895771197
C           -3.53379437763462       -2.69605804339899       -2.78657202968993
C           -4.90418415929036       -2.62327232887065       -2.60188202947313
C           -5.55044541810032       -3.56625917364215       -1.82123231079186
C           -4.82562214277262       -4.58669721048790       -1.22752007903999
C           -3.45754380587094       -4.66569309851542       -1.41655850288467
H            2.76172624658427        0.91768052160800        0.97579788996459
H            3.12462150196711       -0.41766100745046        2.07028131564177
H            1.72873741311341        0.60189309804794        2.39609278090811
H            1.04212665831247       -2.09761071018117        2.46456464037118
H           -0.30374103414621       -1.07126204172900        1.92609717019816
H           -0.92451233801674       -1.60168965290635       -0.75339208978355
H            1.45897626234101       -4.38513184027761        2.68561041284376
H            1.78965353753912       -6.78215777103099        2.23692550440590
H            0.98036151623133       -7.81334148184183        0.17633811325593
H           -0.19925179648440       -6.49613621658508       -1.53783697996408
H           -0.96520663481559       -3.01497215766427       -3.06254698355617
H           -1.02953506489408       -4.77190097242287       -2.82103726996638
H           -3.03345381674063       -1.96159272101589       -3.40066788306553
H           -5.46547696201087       -1.82944693920745       -3.06936838920456
H           -6.61803520570284       -3.50915242262807       -1.67820434767183
H           -5.32640352544897       -5.32562668919232       -0.62149561728653
H           -2.89638100100945       -5.46793361890780       -0.95784122216538
