48
 energy: -52.896344852860 gnorm: 0.000213806975 xtb: 6.7.1 (edcfbbe)
C            0.94187228647926        0.59094344274109        0.03138753009063
C            0.94914948096630       -0.25785698360359       -1.23423332961098
C            1.30604699748766       -1.72237869345753       -0.97511032324885
C            0.32893378377266       -2.47426792821178       -0.06880920563433
C           -1.11010909957710       -2.54359689803667       -0.58442803571681
C           -1.27086747772595       -3.18351061161950       -1.96505131082884
C           -0.72197992058540       -4.60706625899785       -2.09005993724853
C           -1.35086262475438       -5.62032256086751       -1.13005193083094
C           -2.86059134065229       -5.81600252335937       -1.29890348203815
C           -3.39361607009098       -6.20073244400353       -2.68121693150472
N           -3.13133037246134       -7.59196059518976       -3.19398232632841
C           -3.27710539053257       -8.58334314266159       -2.11211735586879
C           -4.14277099305323       -7.88580683055614       -4.22816547425689
C           -1.75827882774706       -7.72300542843994       -3.76731017468142
C           -1.54899219400835       -7.15233499968997       -5.17504975581998
O           -1.95108982955476       -5.80275963990396       -5.22327399577080
H            0.13437585687277        0.29929309179727        0.69824547051522
H            0.80713471819259        1.63986904613401       -0.22120148929377
H            1.88450373025620        0.48670067040890        0.56412747150281
H           -0.02398534342670       -0.19011930754915       -1.72432582049244
H            1.68901971160650        0.15048862860650       -1.92667420160404
H            1.38580320890117       -2.23845654730016       -1.93472102498918
H            2.29273871244689       -1.75975676303025       -0.50730952877175
H            0.71184705501143       -3.48640063367966        0.08305937634206
H            0.31296636259233       -1.99353889847109        0.91022162002680
H           -1.71155362373960       -3.08878213179411        0.14732268334987
H           -1.51849458337112       -1.53338642845389       -0.63559294107738
H           -2.33093163678652       -3.17268007020433       -2.23061648345530
H           -0.75660744235842       -2.56490316419589       -2.70154139954407
H           -0.85636867444339       -4.92710033522659       -3.12535268506878
H            0.35134380387739       -4.58793479248863       -1.89812271086703
H           -0.82109907804110       -6.57426513152395       -1.20794607976982
H           -1.18977903563409       -5.27319090512457       -0.10891155126413
H           -3.21541814194830       -6.51314688937357       -0.53903493809291
H           -3.33725306391695       -4.85866500657141       -1.07963758035825
H           -4.47917091574628       -6.09152576735250       -2.64238502221292
H           -3.00570130443413       -5.51060704834897       -3.42951253210663
H           -4.22356813403776       -8.43172641577359       -1.59628449703874
H           -3.26552631611296       -9.59069306157215       -2.52550472324631
H           -2.46300528498807       -8.49101292858017       -1.39711419102926
H           -4.15729576179645       -7.08913145555827       -4.96884812354223
H           -3.91695410486621       -8.83296661819125       -4.71526151195314
H           -5.12901915188912       -7.95717060884679       -3.77329852503839
H           -1.07218830060191       -7.22333055523742       -3.08614851375974
H           -1.50379445534936       -8.78390276895847       -3.81136512817297
H           -0.47668971753302       -7.25058089627704       -5.38669737580540
H           -2.09213949965423       -7.74139361734738       -5.92572260237153
H           -1.62667799706601       -5.39019059405062       -6.03053940150360
