63
 energy: -70.072410079999 gnorm: 0.000553519459 xtb: 6.7.1 (edcfbbe)
C            0.96990186321691        0.54615915519841        0.24636659514124
C            0.89352956251254        0.75592742335652       -1.26109868269411
C            1.30646502503705       -0.47802307292911       -2.06486873249360
C            0.43623036696285       -1.71679989118375       -1.84133361279070
C           -1.05055971927643       -1.52752520492487       -2.14766474914694
C           -1.36346309226006       -1.07102864064224       -3.57374882303663
C           -0.87854402443087       -2.01522497241740       -4.67534085292333
C           -1.45447082533090       -3.43144493826907       -4.61349553603025
C           -2.98204750630672       -3.50968215797963       -4.65226349105934
C           -3.63052512125553       -2.85150852462150       -5.87151446372684
C           -3.20710611967783       -3.43480879743772       -7.22091080812151
C           -3.52421496758270       -4.91963519916788       -7.41015653905191
C           -5.00040348295812       -5.29110972183952       -7.24584987619056
C           -5.96371098820163       -4.51999270468282       -8.15233201152821
C           -5.70615323585038       -4.68089993548148       -9.65018329989744
C           -5.96873628214508       -6.09864765468066      -10.17791621535804
N           -7.38145845949646       -6.41919843549190      -10.09844721732449
C           -7.87257482918887       -7.07053368641875       -9.03754984243233
C           -9.22070772405850       -7.31324169045803       -8.90534425317188
C          -10.11576632537863       -6.87628436621868       -9.88476854991235
C           -9.56745100245054       -6.19510076414566      -10.97953253770197
C           -8.21385372581129       -5.98223253367135      -11.05544442859730
C          -11.57183443000172       -7.12129732856738       -9.78756379015575
H            0.24514207429308       -0.19345739657578        0.57703390824125
H            0.76225995373030        1.47824625814103        0.76709485364672
H            1.96314579899233        0.20791596037306        0.53371508441224
H           -0.11905916353953        1.05707477119225       -1.53575734193452
H            1.56082964885914        1.57664287228838       -1.53610527739007
H            1.30220725819496       -0.22027492234423       -3.12621015950315
H            2.33487364655757       -0.73693080881797       -1.79987100682773
H            0.83183788823713       -2.52684076569302       -2.45820078422554
H            0.53066713806399       -2.03553952098461       -0.80144235654123
H           -1.56297338540503       -2.47182283917899       -1.94921079806533
H           -1.46622176324112       -0.79047340303265       -1.45776046461019
H           -2.44436742100858       -0.93789319676405       -3.66076355234420
H           -0.90948476383967       -0.09275314561504       -3.74259182661481
H           -1.12262645772239       -1.56725070472305       -5.64156301196453
H            0.20923583683961       -2.09082665248985       -4.62800665332853
H           -1.03972806801485       -4.00613398795205       -5.44518081328849
H           -1.11588188089506       -3.91483591029381       -3.69531125730786
H           -3.27302895616507       -4.56203024113429       -4.60662733102676
H           -3.38518461007275       -3.03127158191391       -3.75799688035239
H           -4.71578483299808       -2.92422215865179       -5.76496377514443
H           -3.38453807237269       -1.78868350781746       -5.87335673190889
H           -3.68496242109731       -2.85341403405666       -8.01343482309504
H           -2.13079557881904       -3.30556177401182       -7.34100066283852
H           -3.17403043028718       -5.22526554430357       -8.39958245201011
H           -2.95362690083648       -5.49904538120923       -6.68325891195509
H           -5.09973834212966       -6.36773214826536       -7.41192075729517
H           -5.29761847786271       -5.10487371351836       -6.21331052668043
H           -6.99062805480611       -4.81933523034097       -7.91813507866213
H           -5.88563067849205       -3.45908181175578       -7.91607997084166
H           -6.33438159508605       -3.97644411698710      -10.20017171082447
H           -4.66779833688903       -4.43510338774390       -9.86728686293646
H           -5.65183264245885       -6.16614498543734      -11.22043145415449
H           -5.40335794273580       -6.82438459665662       -9.59297744254201
H           -7.16694461074666       -7.40664157511371       -8.29262769598963
H           -9.57822450983311       -7.84448327859836       -8.03742899170945
H          -10.20706040851541       -5.83460889962724      -11.76975079212725
H           -7.77044351171015       -5.45921354846706      -11.88973501276337
H          -11.89604485626657       -7.76157819178268      -10.60834825119965
H          -11.83744004398692       -7.59626782212492       -8.84800920317390
H          -12.12131548200152       -6.18560543535350       -9.88421150491439
