47
 energy: -57.799252800544 gnorm: 0.000175268820 xtb: 6.7.1 (edcfbbe)
C            1.37913759470618       -0.94849494037268       -0.30926607011285
C            0.63466089789906       -0.15992496026976       -1.17731372187365
C           -0.70845823026856       -0.43749645109620       -1.36175695406758
C           -1.30119221895274       -1.49123934804556       -0.68492337171583
C           -0.54994271068597       -2.28267207152950        0.16940429446423
C            0.79566179780868       -2.01945016743536        0.35884040892482
N            2.76145809957670       -0.67345914823173       -0.12794791045597
N            3.31860725695823       -0.31376340541634        1.05473627967840
C            4.64703196350930       -0.19766056953040        0.88816146724961
C            4.93331560412277       -0.49744558955466       -0.43697662360877
C            3.72843649577816       -0.79477931702865       -1.05555140940059
C            3.46680255334523       -1.19823840436507       -2.45337886604962
C            5.58757048103946        0.16377701797612        1.96974430403855
C            2.55689115570205       -0.02324791329431        2.24672653334767
C            2.39627730098115        1.48229447870670        2.48726531958561
C            1.49872618076852        2.17724911454198        1.46305728021806
C            0.01405489677863        1.82023491213777        1.56785773744228
C           -0.66212828278215        2.24883575679005        2.87285021132088
C           -0.62134665079890        3.75026334347252        3.16233204996234
C           -1.30772721394960        4.58879270841540        2.09068631268238
H            1.10130581763814        0.66291769421448       -1.69608340416360
H           -1.29134626893779        0.17311354403131       -2.03252148969040
H           -2.34936564717260       -1.70036114729463       -0.82714314421554
H           -1.00807118641102       -3.11052329779524        0.68679408682100
H            1.39087627281341       -2.64735924191299        1.00560480189823
H            5.90104279781271       -0.50507673170165       -0.89332685842112
H            2.56775773059730       -1.80559101767153       -2.52639361896814
H            3.33798338346021       -0.31932931267130       -3.08530287012207
H            4.31520995667187       -1.75798514563839       -2.83844305188572
H            5.55651269614385        1.23344978818283        2.17391469339358
H            5.34998754819198       -0.36041346500289        2.89331839957384
H            6.59994370965389       -0.09036675997601        1.66910984361683
H            1.57496236174640       -0.48743974557002        2.15410563019177
H            3.07570200015028       -0.47871228818131        3.09414927198138
H            1.97890448162444        1.61434962982046        3.48454365431767
H            3.37871424536872        1.95544158579270        2.47964164348476
H            1.60745952597359        3.25345942256882        1.59427054944875
H            1.85119593392571        1.94555008451628        0.45417130524052
H           -0.50412902374635        2.29314167230043        0.73294594167390
H           -0.12414209351352        0.74204628773788        1.45278148206806
H           -1.70717915264154        1.93629721248553        2.81863683231915
H           -0.21350701582401        1.71549692529888        3.71401354456827
H           -1.12590603314692        3.91822201775460        4.11566409958804
H            0.41109895112547        4.08358250948760        3.28327386940795
H           -2.31920913867369        4.22916969254745        1.91654274520562
H           -1.36598868630049        5.62620745989540        2.40911822940245
H           -0.76228013804055        4.55711758092406        1.15053654163612
