30
 energy: -33.509784334196 gnorm: 0.000737688445 xtb: 6.7.1 (edcfbbe)
C            0.70014120678670        0.87571038598930        0.96422250204452
O            0.39306357459198       -0.47803923780592        0.67633730851562
C            1.07340547733659       -1.40630434845610        1.47633360291475
P            0.43722564767994       -2.96774206801930        0.76395424806640
C            0.89502328939800       -2.98928211129894       -0.99996610880455
C            2.38611241779416       -3.20610922124642       -1.23854539617326
C            1.18271439508275       -4.40337451824166        1.61713019267334
C            0.66633435099509       -4.60162425805237        3.03899177055593
C           -1.38639770528318       -2.96633232975211        0.86481545504236
C           -1.94840633177313       -2.27944944950908        2.10643031973010
H            0.09407404790335        1.47471346222067        0.28914882051729
H            1.76017388900461        1.08046711425145        0.78742539973167
H            0.45134453319976        1.12303204126090        2.00063631454729
H            2.16725219763441       -1.33722265656220        1.36746205727741
H            0.82177157570008       -1.30666004099132        2.54293411331647
H            0.30879063887523       -3.78098690938563       -1.47605599625667
H            0.57127306707001       -2.02900793840098       -1.41149183817568
H            2.70628931332653       -4.18669930702287       -0.89478954614064
H            2.59327191676929       -3.14271112100763       -2.30368226865104
H            2.98282775221956       -2.44655881082656       -0.73878428162975
H            0.96977270867732       -5.28737722393888        1.00998590139628
H            2.26537805313844       -4.24955592580555        1.62386844539005
H           -0.39516666437415       -4.83549747232767        3.04365989718348
H            1.19125312728963       -5.43458566091893        3.50033787667278
H            0.83860854589652       -3.71896839537481        3.65084834921917
H           -1.74648237783871       -2.45762786866248       -0.03382092659864
H           -1.70526800458289       -4.01210224331915        0.81589824446204
H           -1.71164923972036       -1.21944964990242        2.09403107304216
H           -3.03106305620447       -2.37831794040766        2.10923091497331
H           -1.56840834659393       -2.71847629648403        3.02500355515965
