33
 energy: -53.666557934883 gnorm: 0.000751335725 xtb: 6.7.1 (edcfbbe)
O            2.25344202849060        2.14329545901832        1.36441554863665
C            2.85686810851458        1.29076710621702        0.73356238425283
C            2.94145884526110        1.28618322400849       -0.69839960971204
C            2.45362287452292        2.20446202245415       -1.61554262044764
C            2.83001444671078        1.73387207387762       -2.88024610663723
C            3.51596868615111        0.56795076154144       -2.65835479437061
O            3.58963183971565        0.28907337679338       -1.36031406783627
C            3.63311188065464        0.17787633648330        1.45204888531489
N            2.92156929009687       -0.41713772167150        2.56264262562247
C            2.55180287801858        0.19331102774268        3.70793732178978
N            2.70293748926522        1.49477682376616        3.95262585392981
N            2.06755366948005       -0.70981263553836        4.57896239666535
C            2.10915247664071       -1.96135178271338        3.97676943619701
C            2.64644388743514       -1.77568142118490        2.69347872959406
C            2.81309977534384       -2.84087439325033        1.82494896186890
C            2.43215617654999       -4.09142193773735        2.27848158954453
C            1.90427796026682       -4.27558675394179        3.55318893627570
C            1.73238344011195       -3.21570188321719        4.42537175709190
C            1.58845560477369       -0.40433785846162        5.90379056179681
H            1.90372068368975        3.09250566209126       -1.37938215403665
H            2.62658987362540        2.18802965950438       -3.82751006324055
H            3.97916270818629       -0.12127547345210       -3.33869077748172
H            3.88562826312029       -0.61530230585526        0.75027818786640
H            4.56578125731827        0.62866360535513        1.81779147153632
H            2.70186300283463        2.10490814567787        3.13052764373803
H            2.30889876968568        1.87509811725643        4.79769280732916
H            3.21691171895787       -2.71544622621366        0.83361615075342
H            2.54729471499439       -4.94360388998059        1.62834957034391
H            1.62131607582705       -5.26699964958732        3.86795817003664
H            1.32032705610682       -3.37123962122569        5.40870682300975
H            2.38574801307695        0.02658152419979        6.51166228868965
H            0.74768353536219        0.29058785127018        5.85818922724816
H            1.25194296919842       -1.32326922324783        6.37517286460172
