22
 energy: -30.282165159288 gnorm: 0.000985124768 xtb: 6.7.1 (edcfbbe)
N            1.24262361624998       -0.09276852119300        0.29680777554978
C            2.36400838565288       -0.04705359579071        0.10150770239759
C            3.80240712567926       -0.02720648611437       -0.12342133300046
N            4.40375731987162       -1.26767032427760        0.34821924896431
C            5.08302013081176       -1.25782503651896        1.51048124438459
C            5.63154308348831       -2.39615260388838        2.03528991955925
C            5.48588409349191       -3.61565609342510        1.35943355811266
C            4.77587605325937       -3.58759588165123        0.16088171368470
C            4.23042806460649       -2.41892132123673       -0.34263554205632
C            3.46485843932385       -2.40811951616673       -1.61424893995098
C            6.06952837420289       -4.86817059671205        1.88471946220459
H            3.99421967564482        0.11512107659891       -1.19230799437623
H            4.22608464833472        0.82246287387419        0.42055793325026
H            5.17585570964645       -0.30907887030293        2.01799288742543
H            6.16835933820291       -2.34589665033092        2.96886315547154
H            4.63564027152567       -4.50175262375387       -0.39487401926817
H            3.37973961113507       -3.41620292875140       -2.00975265323842
H            2.45875143886522       -2.01149983721121       -1.46835168232085
H            3.96092575444360       -1.79458481445267       -2.36875418012610
H            7.04941799213815       -5.02804300745272        1.43021657074715
H            6.20966454880465       -4.81998942872316        2.96113913817609
H            5.45293632462036       -5.72744581251943        1.63157603440993
