33
 energy: -43.262381542248 gnorm: 0.000655815819 xtb: 6.7.1 (edcfbbe)
C            1.68453829405671       -0.60566493148279        0.72901510044820
C            0.92574385228426       -0.12615122771173        1.96123593094218
C            1.12816007297212        1.36391779112753        2.23985130529680
C            0.38713707786290        2.28755500555027        1.26313568826760
N           -1.03631893269259        2.22820469049089        1.47134094095788
N           -1.59422899878154        2.95137065066043        2.39273334941982
N           -2.86499540323559        2.69353118239535        2.41972809629342
C           -3.18735891880721        1.75464932856173        1.48347365432540
C           -1.96305398064759        1.44328126921840        0.84700939215851
C           -1.90382098336371        0.51608753499007       -0.19372030049382
C           -3.09066503721205       -0.07565459644516       -0.55590445700095
C           -4.30629311227988        0.23332695907714        0.07896405970388
C           -4.38379773758316        1.14777980415300        1.10274298752942
C           -3.73383778711988        3.32906943906078        3.37817426824286
C           -4.01065900473357        2.40190227819715        4.55743508996051
H            1.38572119044970       -0.07106742457592       -0.17018819407158
H            1.50324916823363       -1.66477652483636        0.56689943444415
H            2.75307362314036       -0.46228466911345        0.86551107552201
H           -0.13887090980656       -0.35231522472284        1.85694754633845
H            1.28747133465362       -0.68356839943166        2.82629968980235
H            0.80007243892846        1.60358287709364        3.25332481199991
H            2.19107927378794        1.59719823166891        2.17124010314259
H            0.69619608880622        3.32001380419453        1.43666011237399
H            0.59738016733609        2.01228210255262        0.22968138414728
H           -0.97782662773731        0.27245985862224       -0.68637083479488
H           -3.09547037799810       -0.80025045300650       -1.35457469528130
H           -5.20334525189307       -0.26425786034779       -0.25361815997980
H           -5.31782054424016        1.38566398304425        1.58373554648915
H           -3.22814078182369        4.23448655969626        3.71686227187163
H           -4.66406878207304        3.59770606572528        2.87283961423588
H           -3.08834237284506        2.16194905344800        5.07940730581024
H           -4.67832897127906        2.89995130142923        5.25352116758646
H           -4.48117806636020        1.47861154071515        4.22993671431389
