25
 energy: -27.794669487853 gnorm: 0.000218441513 xtb: 6.7.1 (edcfbbe)
C            2.03112061959590        0.11597598507091        0.58715868782141
C            0.68138490147453        0.74346044278582        0.92279264231988
C            0.54457645446417        2.17213230720558        0.40349570534105
N            0.71491702020172        2.27278614968581       -1.07844700419497
C            1.18079599294687        3.61536863373510       -1.53665876033474
C           -0.09740571326600        4.36222737715880       -1.93020583087179
C           -1.02105971055058        3.23110534046673       -2.25066104882703
C           -0.56057067530945        2.07079848705429       -1.81147111985412
C           -1.11407239143216        0.70270545157670       -1.93718758879130
H            2.14191851729905       -0.09670146951271       -0.47653627276310
H            2.12875140705882       -0.83218661466453        1.10747709997547
H            2.85095958888727        0.75549617777312        0.90620423769582
H           -0.12277140546645        0.11047951806340        0.55050718217685
H            0.57434259633505        0.79276566883966        2.00705214827947
H           -0.42911296286999        2.59127050087581        0.66213663184132
H            1.32079196621319        2.78245651499260        0.86936801498225
H            1.39759285748211        1.54773763741093       -1.32686344061008
H            1.75678706086810        4.11551638842985       -0.76092711257487
H            1.81412444299176        3.47990678865277       -2.41497689862164
H           -0.49646954185806        4.96987013461630       -1.11512495932615
H            0.05870917526047        5.01832267166175       -2.78425272996356
H           -1.94489642525105        3.37126449683157       -2.77825440818301
H           -1.83603865132434        0.68225426454017       -2.74876075524486
H           -0.33262908028313       -0.02386943083157       -2.15327554144183
H           -1.63261604346760        0.39240657758098       -1.03056887883043
