33
 energy: -46.074007903792 gnorm: 0.000631194971 xtb: 6.7.1 (edcfbbe)
C            0.98906535563240        0.15453352515202        2.14188391537908
C            0.47320288588824       -0.92249148818878        1.24811107681639
O           -0.66515271221548       -1.01869372309390        0.87591508157484
C            1.51939273950858       -1.97565508078268        0.81393610927154
N            0.89052973511229       -2.92345648586354       -0.08596310333549
C            0.18783683072634       -2.64566909844438       -1.19332643317714
C            0.03998150565291       -1.34942339180011       -1.88226813129460
N           -0.38097531163710       -3.76105946508967       -1.66454261385970
C           -0.04789511281573       -4.81393669237423       -0.83638756408126
C            0.76280555719192       -4.27755325394442        0.17804049043497
C            1.28037809944787       -5.08322424957063        1.18371213184165
C            0.95787427544623       -6.42478681993259        1.14360449286927
C            0.14943929336184       -6.95585523560606        0.13699886289815
C           -0.36605743710701       -6.16531759052146       -0.86946150175832
C           -1.20967828296160       -3.83320538040568       -2.83818846016753
C            2.80926084884749       -1.39234330579422        0.23531992061927
H            0.15512149846187        0.66274927661220        2.61890006294144
H            1.53453784452265        0.88417648383038        1.54442645351875
H            1.66657867264625       -0.23950342444040        2.89413153612695
H            1.77421561452279       -2.53852613289803        1.71866365091549
H           -0.99903439616333       -1.02067596416062       -1.82334086410294
H            0.65619653999896       -0.57669976303648       -1.43855464110045
H            0.30038763449240       -1.45426426261364       -2.93578927595150
H            1.91132403230364       -4.69431614382181        1.96632482885869
H            1.34080621793321       -7.08102930710377        1.90852906161101
H           -0.07494534826535       -8.01035331805301        0.14720749576688
H           -0.98540348968518       -6.58776486975078       -1.64333411772759
H           -2.02261119419147       -3.10901778697300       -2.77335632377878
H           -0.62407085040506       -3.62902105215258       -3.73669712923724
H           -1.63291824155987       -4.83124365562619       -2.91558876182563
H            3.34558905994451       -0.84442837758745        1.00355586944774
H            3.45065222802608       -2.19955283185543       -0.11231935353148
H            2.62178590732902       -0.72158113410571       -0.59815276594790
