26
 energy: -33.136975555157 gnorm: 0.000375839826 xtb: 6.7.1 (edcfbbe)
C            0.94819014240527        0.41114459176878       -0.18903342794831
C           -0.22558300025356        0.18782892252534       -0.13365200456634
C           -1.65418361655848       -0.06286784674968       -0.09626630808370
C           -2.45981717430511        1.24317598956827       -0.13500644564194
C           -2.07464956446748        2.15719599100038       -1.29689161704112
C           -2.42505896020372        1.59822172517000       -2.68428596326243
N           -3.86379938654880        1.53065717165469       -2.86265759346661
C           -4.52470676497188        0.40325683907838       -2.58049051602795
C           -5.90094839423928        0.33866567891069       -2.66798397678706
C           -6.61004298467621        1.46700186206330       -3.05665598415407
C           -5.90520640512887        2.62889148687643       -3.34699784017540
C           -4.53076581972681        2.62891909913666       -3.23656285443903
H            1.98173987464359        0.58937180705483       -0.20974391934683
H           -1.91575878672588       -0.72109716014256       -0.93112220298077
H           -1.88993747397341       -0.59806050066505        0.82674232708972
H           -3.52935087315080        1.01332707737771       -0.15635871826113
H           -2.26470733170573        1.79047602839243        0.78833769986870
H           -2.55461000570101        3.12968174293288       -1.17035922163031
H           -0.99418170981391        2.30662169446307       -1.27112454681485
H           -2.00506621386328        2.25037118215257       -3.45190985092310
H           -1.99654548462313        0.60276673549490       -2.80263487133626
H           -3.93933821151249       -0.45800709725869       -2.29477563991236
H           -6.40679898456678       -0.58483300799455       -2.43620080101353
H           -7.68543426873498        1.44156323579737       -3.13546029789527
H           -6.41553222524840        3.52639013694162       -3.65713216387321
H           -3.94612637636073        3.51131661444708       -3.45190326137967
