27
 energy: -32.359997677515 gnorm: 0.000865343675 xtb: 6.7.1 (edcfbbe)
C            0.98263574595561        0.10990383542550        0.91960314253092
C            0.58696152320796       -1.16222994198068        0.20057348896519
S            1.27022751318252       -2.66651062335659        1.00094828819648
C            2.99677340129425       -2.37698530757235        1.14979679454307
N            3.69246154745930       -1.82668029316344        0.15443202373868
C            4.86072420725751       -0.99237928762852        0.36264255945301
C            3.31963655954978       -1.97510377404336       -1.23511679355111
N            3.56055494198161       -2.76786925880170        2.28634990621852
C            2.78976264803203       -3.04381565403984        3.47996360495276
C            4.95152047632252       -3.16527001529566        2.38862617881850
H            0.70581952833449        0.06548719732092        1.97076831129851
H            0.45634843549306        0.94762717522513        0.46777405051561
H            2.05115561864459        0.30136504399393        0.84555323859832
H           -0.48682051758226       -1.33493488948883        0.28351867528299
H            0.85467827582096       -1.14687253167353       -0.85316746809181
H            5.77498687219753       -1.48009783786539        0.02133230983506
H            4.73317181286719       -0.07877721024124       -0.22151463545762
H            4.95970230168370       -0.71793949565873        1.40849937642805
H            2.56096891560419       -2.74568327598022       -1.34881677237172
H            2.96256886851175       -1.03314737623350       -1.65635774932782
H            4.20389547470937       -2.27909725503087       -1.79800131498111
H            2.51396098885695       -4.09855231190980        3.53428974332685
H            3.39675184925983       -2.79522496451255        4.34947419236926
H            1.88034484742078       -2.44826017226446        3.49981477812703
H            5.39315978683347       -3.30080658300604        1.40638568898035
H            5.53441813106134       -2.44046383176419        2.95910622316984
H            4.99320024603995       -4.12026136045383        2.91360215842560
