30
 energy: -47.150502405631 gnorm: 0.000333296492 xtb: 6.7.1 (edcfbbe)
C            1.37755992728636       -0.23526175461496        0.19250189110022
C            0.33173104708585       -0.22906718951395        1.31837168728830
C            0.68725781742077        0.75942720782079        2.36372816960845
N            1.37423281146939        0.47753406052844        3.48115837516663
C            1.85407435285793       -0.81521986961810        3.90137722606860
C            1.53958079042563        1.64183920061846        4.20032014677006
C            0.92955875311661        2.66295142182606        3.44670461633492
N            0.41291243263364        2.06789693386002        2.31431288809244
C           -0.27402514484691        2.79740602307380        1.28023778456144
C            0.92285448036524        3.97928089864714        3.87947389579023
C            1.54410266083512        4.22099471959490        5.09159778836908
C            2.14845991628211        3.21598806988476        5.85327348823488
C            2.15548550666765        1.90754663127312        5.41939775834704
N            1.56551556638013        5.59532563520888        5.59472629166378
O            2.11276110481221        5.78167771728308        6.64969768171538
O            1.03042858343315        6.42754990735572        4.90558799057488
H            1.43434494854746        0.73383808560952       -0.29518487549916
H            1.09977202165637       -0.97600167082668       -0.55079032817287
H            2.36327655007158       -0.48729731863109        0.57453194697640
H           -0.64638859174719        0.01264542952226        0.89991679804382
H            0.26209255915282       -1.22268140104065        1.76076893198190
H            2.74766418201362       -0.68149665433460        4.50753171687076
H            1.09872263681284       -1.32914912759438        4.49925213219037
H            2.10887377350390       -1.42872920513107        3.04056867106719
H           -1.01065549196831        3.46045563165181        1.73381538955536
H            0.43657746204648        3.40210013573788        0.71373329677965
H           -0.78052294091491        2.11807023815179        0.60023799052981
H            0.47250517617815        4.79096734007990        3.32981265766471
H            2.60817815388523        3.49357407891461        6.79005943325976
H            2.61570895453782        1.13306482466280        6.00964855906578
