48
 energy: -54.238306948820 gnorm: 0.000458661972 xtb: 6.7.1 (edcfbbe)
C            0.96663312717725        0.00421955556697       -0.51053591151578
C            0.80778547964598       -1.43315024455921       -0.02950272636480
C            1.24340761774660       -1.63569810113310        1.42259515668281
C            0.45783837443145       -0.82092470541527        2.45236369499922
C           -1.05265100805662       -1.06326681277307        2.45281707877980
C           -1.47403868999762       -2.51302351725497        2.69975317850504
C           -1.01359956977024       -3.10192257397485        4.03489039195948
C           -1.48101983430304       -2.33643921702867        5.27458535689877
C           -2.99630319657140       -2.14949110385559        5.38642130793673
C           -3.80845431309666       -3.44710242522899        5.37083779369804
C           -3.50201386642859       -4.41285814813889        6.51441993479604
C           -3.90847481073456       -3.89084860401350        7.90140999361730
N           -5.35035643849150       -3.75820814964748        7.98975503434649
C           -6.09283836254528       -4.83013001562440        8.29111407248896
C           -7.47005537654140       -4.76655039401564        8.30193136531777
C           -8.09712951458794       -3.56705420979139        7.98576220629754
C           -7.31012327021165       -2.46688356744052        7.67359336092054
C           -5.93548668747787       -2.59528437917958        7.68359584625614
H            0.28095059822491        0.67118454200950        0.00618117071271
H            0.76007094869051        0.06866445461946       -1.57617337948318
H            1.98239009811876        0.35278752338563       -0.33794083967998
H           -0.23026444132942       -1.74677204717549       -0.15544546683344
H            1.42004666540260       -2.08415151351189       -0.65799738558998
H            1.16898302482269       -2.69809349428778        1.66527386791770
H            2.29683694735424       -1.35878790136799        1.51014908895821
H            0.86225419312910       -1.04116336100288        3.44306800840750
H            0.62877983901203        0.24131536257682        2.26936152166423
H           -1.50244167047046       -0.41722170209705        3.21078346454605
H           -1.46292107898540       -0.75343005923175        1.49026205212268
H           -2.56340917363210       -2.57087880275190        2.62974568146307
H           -1.07336047033956       -3.13957460565174        1.90164142599293
H           -1.35660859133026       -4.13811202987916        4.09118031849850
H            0.07654867441296       -3.12997339813796        4.05307672102585
H           -1.10463083483776       -2.85160024095475        6.16215643694042
H           -1.02521949221877       -1.34565830351235        5.27050485218546
H           -3.20026638613822       -1.58054152986657        6.29832676204430
H           -3.33688444225901       -1.53677795635345        4.55132067604216
H           -4.87575059809865       -3.20143057647912        5.36639343261962
H           -3.60549200055645       -3.96904551039523        4.43608326736172
H           -4.01067813903916       -5.36174198577010        6.33007551944551
H           -2.43167448003418       -4.61213378256881        6.54155328306203
H           -3.57027191875154       -4.59032191104529        8.66791855362404
H           -3.44572411979144       -2.92053273249711        8.08303288859823
H           -5.56732532650760       -5.74378793134661        8.52775620769862
H           -8.04310842685511       -5.64424164066166        8.55407692435110
H           -9.17305170340019       -3.49227000824418        7.98535936605591
H           -7.75428442662600       -1.51657754955749        7.42523057070930
H           -5.29053292815439       -1.75957469473799        7.45615787391776
