26
 energy: -34.328485264906 gnorm: 0.000426818404 xtb: 6.7.1 (edcfbbe)
O            1.30623133794924       -0.08604334370418        0.09099186411193
C            0.66097806005141        0.94647403058599        0.80000824805219
C            0.97657677436305        0.74384126300297        2.29263470029444
N            2.42361594994248        0.68005928872753        2.43051839886571
C            3.28141234528497        1.70459430011168        2.69294787137544
C            4.54514653729966        1.20560022279221        2.60225498318635
N            4.43942367285631       -0.11091950782844        2.27166311050128
C            3.14785379291815       -0.40571727437610        2.17657790321837
C            5.54091693323634       -1.03862067645277        2.13409249641279
C            5.93051824523180       -1.61966135122612        3.48966149638208
C            0.36653919858552        1.82920359477232        3.16439927071708
H            1.00793983993211       -0.08398818559861       -0.82463659663489
H            1.02627385985332        1.93048862245078        0.47362534810308
H           -0.42526891612954        0.91068743222439        0.66624583132697
H            0.59307465297667       -0.23875110443626        2.58619592458244
H            2.95511891790738        2.69591582452607        2.92763458748759
H            5.48939069300564        1.69105935007619        2.74206581463780
H            2.74327918314511       -1.36146775151352        1.90739158445839
H            5.23773807188536       -1.83535686650719        1.45277137783122
H            6.38635016800701       -0.50359998063977        1.69753163499449
H            5.09909107934626       -2.16363470961653        3.93007110104041
H            6.76111264135855       -2.30689971232601        3.36291168925072
H            6.23722534413759       -0.83377758958588        4.17482426553703
H           -0.71471866955152        1.72856765206526        3.15847722010364
H            0.70867864353210        1.73330197742527        4.19164048070625
H            0.61098164287551        2.82168449505122        2.79560939345695
