25
 energy: -33.447135224558 gnorm: 0.000354756605 xtb: 6.7.1 (edcfbbe)
C            1.06774692361690       -0.09103164747554        0.30469994895382
N           -0.05577793448826       -0.13674850653324        0.50479438545290
C            2.50246149182402       -0.03761898547954        0.15606690170688
C            3.11878441668722        1.03213243671099        1.06969844864041
C            2.64002315737541        0.94920831403465        2.52773087300111
N            3.02098857840152       -0.29949446158105        3.17594365030878
C            4.21433595499825       -0.43564822328381        3.79136519447432
C            4.53835699290096       -1.66225619776916        4.36367190329756
C            3.65961936703405       -2.72825562871422        4.30846247552349
C            2.43478949114377       -2.54908832700218        3.67397181844773
C            2.14970589089212       -1.32247153645645        3.12362222343160
C            5.15417415427666        0.71124081037035        3.88745827578176
H            2.90746432206850       -1.03109650878866        0.37457106940869
H            2.73633574395580        0.19543515560565       -0.88541723944650
H            4.20491839749250        0.95100070577031        1.01020458107464
H            2.83633105205741        2.02016492997724        0.70297258454133
H            3.04760178005814        1.78888347254699        3.09091977991652
H            1.55026613834268        1.02495024108143        2.54535349766165
H            5.49087876172937       -1.76861784558751        4.85804992212121
H            3.91742491146830       -3.67587461051831        4.75428298543141
H            1.71052949795254       -3.34457586172620        3.61204461734178
H            1.20582285930707       -1.13715495620677        2.63076610769316
H            5.37404355363944        1.14999858548803        2.91682751626905
H            4.73664885421924        1.49562028090446        4.52092287859524
H            6.09012564304628        0.38960836463221        4.33504560037131
