60
 energy: -65.553306750272 gnorm: 0.000253491964 xtb: 6.7.1 (edcfbbe)
C            1.54582002787010        0.53076466858569        0.52950132518372
C            1.35231029833218        1.38298748741470       -0.71893097493112
C            1.69756695031382        0.64544685865074       -2.01372210102776
C            0.84920219821423       -0.59664028039417       -2.29611887858094
C           -0.65978658311233       -0.35061866616853       -2.34872349757703
C           -1.11013209649720        0.67632765300072       -3.38910649633915
C           -0.77296466629193        0.31876324074231       -4.83815978919519
C           -1.36116164159513       -1.00607363166501       -5.32932687667788
C           -2.88124610042958       -1.12234824432807       -5.19951921816772
C           -3.68120639199163       -0.03625737789114       -5.92328462322376
C           -3.42861139905800        0.05819480468470       -7.43354986863159
C           -3.76034950924932       -1.20558894974105       -8.23511637084171
N           -5.11259567722501       -1.26785494960771       -8.86795501126918
C           -5.21003171048326       -0.25192991347129       -9.98429224745326
O           -4.24844839334735       -0.52095588222958      -10.93375970395668
C           -3.41140581084561        0.57125003828427      -11.33296779354394
C           -4.14506227147992        1.59193948808088      -12.18880185597618
C           -5.30351882307699       -2.61098052404084       -9.50832968200482
C           -5.26018389963900       -3.81188068708715       -8.57877211960724
C           -6.18494546770890       -1.00812054797548       -7.89633975226373
H            0.84888777001319       -0.30331229948439        0.54931517796307
H            1.37999902516689        1.12953532039776        1.42202613235607
H            2.55830223076923        0.13508871014724        0.56683320957180
H            0.32247927824399        1.74304199811385       -0.75768489355117
H            1.99882255684610        2.26104707032052       -0.64893974971165
H            1.60819169125509        1.34435475941419       -2.84852397633412
H            2.74368400077358        0.33309014824387       -1.96680329418764
H            1.18106640001081       -1.02922304854315       -3.24296139003472
H            1.04246140464499       -1.34202084011265       -1.52270449175663
H           -1.15642449073166       -1.30526049979764       -2.53812478446166
H           -0.99822875647373       -0.00786630342441       -1.36958304887231
H           -2.18924025971740        0.81655015939692       -3.28874350764585
H           -0.64505381413157        1.63709526974188       -3.16380513591884
H           -1.11490234050279        1.13400694884877       -5.48121499627478
H            0.31100841457799        0.26426397874252       -4.94757816467806
H           -1.06585071402869       -1.15318003648016       -6.37173476164508
H           -0.91608875399988       -1.82241830556718       -4.75929963072036
H           -3.18233934436481       -2.11402921636110       -5.54971375001866
H           -3.14801333355282       -1.07501638166207       -4.14360546211025
H           -4.74045181374039       -0.19511895719317       -5.71555172529179
H           -3.41717492272566        0.92983048171556       -5.49277214625174
H           -3.96117810006532        0.92729927489827       -7.82274041539231
H           -2.36640116694844        0.25914726112235       -7.57669670124151
H           -3.04707666570097       -1.32839170246575       -9.05239355932470
H           -3.66950628720661       -2.06331839132632       -7.57152838537080
H           -6.21954880590713       -0.34619864540235      -10.40797356122072
H           -5.09638705764033        0.74910187006582       -9.55335720246376
H           -2.97477030598506        1.04858120989087      -10.44669614588285
H           -2.61734349686935        0.09532354003952      -11.90998954731669
H           -4.93034899730176        2.09423471846532      -11.62773436449918
H           -3.43975491244889        2.34032794630771      -12.53659073557878
H           -4.58939278986261        1.10521836063404      -13.05252540859037
H           -6.27398482966229       -2.58520589816447      -10.00826474828166
H           -4.53349047090028       -2.70450823979512      -10.27601727367459
H           -6.00355465228014       -3.75422343150488       -7.78897759639478
H           -5.48914823467586       -4.69180702155836       -9.17498499256072
H           -4.27984585651633       -3.97145418355651       -8.13988022129869
H           -6.07260501536787       -1.66594883769539       -7.03828968595033
H           -6.14596230415761        0.02387342601354       -7.55569822088168
H           -7.15613331151805       -1.18644479727407       -8.35549530843483
