21
 energy: -24.892015455937 gnorm: 0.000288138279 xtb: 6.7.1 (edcfbbe)
C            0.98119242781489        0.11854370877232       -0.39228132689533
C            0.95840044076208       -1.10862830420579       -1.28435281287192
N            0.43607656944613       -2.30738818596676       -0.56109467480047
C            0.15658930556325       -3.42670094984156       -1.48074218631006
C            0.99869288889396       -4.43055592320278       -1.21445757106036
N            1.84056378108678       -4.13707101684136       -0.19203656469159
C            1.40560415985329       -2.89382661037301        0.41353326372577
C            2.59066415218262       -5.08662593787073        0.58546571703484
H           -0.01657994534793        0.35683305060732       -0.02930448571824
H            1.33573859116690        0.96947176847196       -0.96704914343684
H            1.64393436544838       -0.00384302539780        0.46037824762770
H            0.30361650687241       -0.93365174026940       -2.14034549869660
H            1.95344702993599       -1.35475415105453       -1.65867165455852
H           -0.42092289213815       -2.00737128998402       -0.08439937896602
H           -0.57102562441390       -3.30660806803482       -2.25266988601836
H            1.06788269027304       -5.36729706370806       -1.73340340650056
H            0.91581809807766       -3.07787807526256        1.38146206840654
H            2.25377092671177       -2.21925296434200        0.56887770698154
H            2.02439723083091       -5.43777157886660        1.45393849259136
H            2.83935814136311       -5.93875062804875       -0.04104981327022
H            3.51594115561706       -4.62594301458110        0.93102290742730
