21
 energy: -40.011733641231 gnorm: 0.000622553580 xtb: 6.7.1 (edcfbbe)
C            1.05900197939532       -0.05917290187480       -0.09684976672828
N            0.60799246093382       -1.41374493329037        0.03857945711624
N           -0.63106167038725       -1.67731847810743        0.43051978918833
C           -0.73474531607869       -2.97027395993621        0.46237544019091
N            0.44268543728872       -3.55943026192729        0.09044535649160
C            1.28528092463303       -2.54181846529998       -0.17858013616003
C            2.68258229798776       -2.63685895953337       -0.61731530135829
C            0.74210836728989       -4.96687782585362       -0.00073480094579
C           -1.98380691830825       -3.71971783936914        0.85480183617056
F           -2.37541066964034       -4.51824266044200       -0.14435223391176
F           -1.73878670807372       -4.50599828807324        1.90930674795677
F           -2.96781527508084       -2.89994633545497        1.15557348030768
H            0.23734770918784        0.59104031090905        0.19938384175627
H            1.33156316507694        0.15289270038806       -1.13087512093612
H            1.91948924193367        0.12398480025624        0.54653883680714
H            2.88302606966063       -1.91334448093923       -1.40687290956114
H            3.35653728070725       -2.40823544149521        0.21098046585733
H            2.91532623201058       -3.63397373881062       -0.98099516195186
H            0.94382829449703       -5.23922411281102       -1.03794602336378
H            1.61387186449068       -5.20092973644442        0.61086304238333
H           -0.10100476752400       -5.55447939189045        0.35400316069093
