33
 energy: -45.520858566943 gnorm: 0.000206177052 xtb: 6.7.1 (edcfbbe)
O            1.91820966932337       -2.23333627380099        0.13154662835463
C            2.60640180295151       -1.23162872514086        0.20748150987193
C            3.19658165532425       -0.75723054502561        1.45000311538617
C            3.01613835575771       -1.54516049606712        2.59610749153165
C            3.56418080894654       -1.18279567536892        3.80280079156229
C            4.31180990697100       -0.00726558911723        3.90467262699238
C            4.48816803441623        0.79303309584145        2.76898980148145
C            3.94353304598662        0.42414478301655        1.56380068805361
O            4.87503469758291        0.39769742791355        5.04792616307301
C            2.90167681119748       -0.42901892362453       -1.07338765747804
C            2.36656820416968       -1.15136818572389       -2.30897188265818
N            0.98982566185814       -0.77905335149039       -2.75503861676836
C            0.99499577257243        0.55355487075318       -3.38295338048304
C            0.55532628339138       -1.77544308096813       -3.75309405344964
C            0.03485408978540       -0.79535724360047       -1.63150398359177
H            2.44036339449090       -2.45369627662620        2.50645298858183
H            3.42188031320682       -1.80591235652985        4.67448742833258
H            5.06463546462443        1.69837204840559        2.86880082412374
H            4.10301116537334        1.06534660137386        0.71130218387081
H            4.70363168243092       -0.22151952912123        5.77036334749285
H            2.51165671207982        0.58229935603725       -0.96662847341616
H            3.98556375557352       -0.34980261771977       -1.16678247995779
H            3.03464922223550       -0.99459847451622       -3.15693810896865
H            2.34908237697752       -2.21860048155797       -2.06400995312684
H            1.63489614234695        0.55296986964032       -4.26391628402198
H           -0.01430871017149        0.82785891135406       -3.68509805751687
H            1.36193027595446        1.30489547161998       -2.68720809233409
H            0.46413691194168       -2.75485800513073       -3.28669278390905
H           -0.41172993033585       -1.49524859814894       -4.16718526406250
H            1.27721204900555       -1.83941390838360       -4.56561041927739
H            0.13473311572538       -1.72666539045741       -1.07470388480640
H            0.22823564589648        0.02966977481483       -0.95003849437942
H           -0.98207438760621       -0.70366848263269       -2.00744371849555
