52
 energy: -58.226316634169 gnorm: 0.000465530887 xtb: 6.7.1 (edcfbbe)
C           -4.74642079090310        3.79900426959313        0.01018922422791
C           -3.32264686802142        4.14288888173818        0.41668660397233
N           -2.92112076549351        3.71643376572998        1.79245762145278
C           -2.97119927965421        2.19934046857419        1.87422026037011
O           -2.18606878683457        1.66416738521884        0.89052917186695
C           -1.13883722889494        0.74364821633645        1.28681489407920
C           -1.72160468448226       -0.59585632518589        1.73604274648078
C           -2.27392312740819       -1.45795192532768        0.59815059799145
C           -3.56671456611180       -0.89760509148681        0.00901555521805
C           -1.18136618766163       -1.64105988294682       -0.45431895391427
C           -0.65249609749066       -0.31036956366777       -0.98192713149003
C           -0.17169901705651        0.67852590806431        0.09048429437145
C            1.30812377571440        0.53626493245313        0.52135223946059
C            1.75232621203254       -0.87028928353479        0.90824822072577
C            2.22777489455631        1.06485431361070       -0.58078389971213
C           -1.50666737089208        4.13085271467549        2.05059833410027
C           -1.24360215523779        5.62709260849739        2.08415689175261
C           -3.81930416201387        4.27880874569144        2.81255496206339
H           -4.91283516531478        2.72745673559673       -0.04105103161241
H           -4.90540657609339        4.19655317891117       -0.98924478923438
H           -5.48805795386821        4.25198933665112        0.66137696112838
H           -2.62942106881750        3.65720355556492       -0.27221928523147
H           -3.18991256389107        5.22282153638867        0.35924937273904
H           -2.64512599730893        1.91267114671180        2.88267489619570
H           -4.02192341589301        1.91242860036452        1.74305466329257
H           -0.61337846498436        1.19350206521509        2.14508908413984
H           -2.50676380305277       -0.41473048506699        2.47605832036118
H           -0.92602776249530       -1.14667474017395        2.23836585053122
H           -2.50736901893894       -2.44142748038159        1.02093474121625
H           -4.32990561248378       -0.81781127092803        0.78155930950035
H           -3.40932775256237        0.08240567396266       -0.43052678441623
H           -3.93927464075530       -1.56563966502844       -0.76311669807603
H           -0.37278395651377       -2.22385915501075       -0.01616387173893
H           -1.57895221821637       -2.21273000110450       -1.29444563553339
H           -1.44773902285262        0.17297118263609       -1.55152125386577
H            0.16474734039290       -0.50218802051848       -1.67653428459423
H           -0.23258296325148        1.67584146614984       -0.36585837065317
H            1.44587967591680        1.18270758667238        1.39850896540510
H            1.72944670918748       -1.53403102802676        0.04921140548119
H            2.77699716640334       -0.83378751709263        1.27159797508601
H            1.13455250661599       -1.28667461956737        1.69845305974742
H            1.97920744550936        2.09081449735783       -0.84501065864428
H            3.26083693013242        1.04232800147768       -0.24390780458959
H            2.15476728309988        0.45357761537176       -1.47618920729810
H           -1.22098539622206        3.70383112227800        3.01517700802136
H           -0.89447333029492        3.66677118532978        1.27450993751341
H           -1.80783744457621        6.12751368015335        2.86557448448808
H           -0.18815440249121        5.76933000108445        2.30347901668718
H           -1.44103046968610        6.11045166528749        1.13232184281021
H           -3.95061769907361        5.34573883324866        2.64744555379951
H           -4.79269620089992        3.79568106098184        2.76743546901038
H           -3.40123595087261        4.12052411747022        3.80528012531329
