43
 energy: -68.064980528748 gnorm: 0.000575823802 xtb: 6.7.1 (edcfbbe)
C            2.43081972373411       -1.81366100762237       -0.40304644651054
O            1.29253840651343       -1.77229129482148        0.46417251810132
C            1.48393593406782       -1.54314950550790        1.74143463946630
O            2.52557181195284       -1.33688224007670        2.30224323916402
C            0.14123817208534       -1.57617540501782        2.50366265660259
N            0.30278889442662       -0.93497102046170        3.77793357021067
C            0.91548655668308       -1.46528649700044        4.84742307329073
C            1.40235349388263       -2.85430817111263        4.90752218461009
N            1.03020932680148       -0.53932450722187        5.80746346658100
C            0.51787969850746        0.65560519073777        5.32913459442951
C            0.05256822865345        0.40109623514240        4.02850017477140
C           -0.51837784452946        1.40106507266168        3.25353810202142
C           -0.60247345197488        2.65898743150258        3.81542332669448
C           -0.12533171689028        2.91885482461481        5.10112008850954
C            0.44391141811110        1.93005786091895        5.87829655653919
C            1.61209351994592       -0.73187709896466        7.11540272629927
C            0.83717494491460       -1.77487690660433        7.96979812373073
O            1.23614850561945       -2.91639843081840        7.97494516330489
C           -0.32142400212732       -1.32720048717891        8.74402241845501
C           -0.99269869440066       -0.12248645581716        8.51733454052569
C           -2.08296335998718        0.21768078054257        9.29395555309518
C           -2.51260467586486       -0.62517609617051       10.30900564661299
C           -1.85861360620366       -1.82666163259091       10.53799374776836
C           -0.77666823122433       -2.17980333957244        9.75807611102488
H            2.22560878607901       -1.15084288488322       -1.24169540312549
H            2.55175529734824       -2.83588589181806       -0.76035098562885
H            3.32494488360406       -1.49154217356026        0.13117787787167
H           -0.62498592202565       -1.06424060907274        1.92139736754849
H           -0.15746958968385       -2.62014104138997        2.63121033751034
H            0.61409464374041       -3.55175687724030        4.62448499431727
H            2.22729949608152       -2.97501723009400        4.20317036811197
H            1.74721999394615       -3.12040873079743        5.90283264693725
H           -0.87297549562018        1.21587744449367        2.25301484979101
H           -1.03621568806182        3.46424123885250        3.24474168863121
H           -0.19685920212361        3.92032817813042        5.49400536148563
H            0.82568849561543        2.15827354530597        6.86065535640414
H            2.63367743532488       -1.11000190272299        7.00522436121507
H            1.64407477591222        0.22757788385172        7.62957329156553
H           -0.69193685094361        0.54135728365282        7.72261893684387
H           -2.60082714743758        1.14659023915453        9.10968899329470
H           -3.35854235240304       -0.34548278019786       10.91761672808241
H           -2.19449862182150       -2.48549660291260       11.32333729677792
H           -0.25323599022225       -3.10961638832134        9.92095015709518
