17
 energy: -17.169848158287 gnorm: 0.000862897367 xtb: 6.7.1 (edcfbbe)
C            0.92736424412823        0.07180745978158       -0.05620170010319
C            0.45468067222992       -1.17010209572865        0.69219938307179
C            0.90839569403761       -1.21137788851181        2.15528149600242
C            0.44746156154831       -0.01671067159103        2.97889715987812
N           -1.04645315107393        0.05415684253805        2.97937628107558
H            0.44366772871325        0.98285015716967        0.29096766272573
H            0.70616010346475       -0.03173296061512       -1.11425481556772
H            2.00221266486489        0.19052787146217        0.04801530966948
H           -0.63323048408413       -1.26523480378963        0.61235953469939
H            0.87218230475405       -2.04832399680369        0.19992767086810
H            0.55970702048902       -2.13597176494373        2.61932638038963
H            1.99775800400592       -1.22759190307510        2.18366775387612
H            0.79509418008386       -0.10443709734694        4.00853267627313
H            0.83533714870663        0.91026332414822        2.55634985814485
H           -1.43874954078206       -0.78962440580223        3.41640549891348
H           -1.39265211251717        0.88062991468139        3.47918052876643
H           -1.36367603856911        0.08550201842681        1.99984932131660
