42
 energy: -44.671894090902 gnorm: 0.000184931464 xtb: 6.7.1 (edcfbbe)
C            0.97925830421542        0.55289364726657        0.79932438791387
C            0.81355056272859        1.78770088053522       -0.07829508923451
C            1.22467169836409        1.55416829274368       -1.53329442215985
C            0.43169607228224        0.46573749221351       -2.26228549964004
C           -1.08059196949171        0.69774121217192       -2.31091394218882
C           -1.51583432304180        1.99216309675377       -3.00404493249805
C           -1.07927614418451        2.23125039935445       -4.45280415607029
N           -1.64864876012790        1.37698842193755       -5.55429730967125
C           -1.46956643319725        2.13665011118872       -6.80803702058849
C           -0.90715605597694        0.08647683954328       -5.64662758442348
C           -1.48181281874442       -0.88279319062643       -6.67574232406390
C           -2.96178375203847       -1.13982291639400       -6.41278733111141
C           -3.71265721277814        0.18685888027442       -6.36776863074880
C           -3.09166142210938        1.10096722587948       -5.31752861642674
H            0.29149151042989       -0.23802728465253        0.51017131753846
H            0.78102661067364        0.80490289557939        1.83760513994242
H            1.99477010507658        0.17063539652353        0.73012338073130
H           -0.21980135085245        2.13698550014820       -0.02734405114515
H            1.44152984118635        2.58710555954118        0.31951169517867
H            1.14689329489766        2.49901687048265       -2.07728809517157
H            2.27644800948451        1.26149135251900       -1.55036538416890
H            0.83676431866183        0.36795258946039       -3.27297882151173
H            0.60599667617225       -0.48694167652491       -1.76147712533770
H           -1.56518434551615       -0.17233819407828       -2.76195975547155
H           -1.45195984055564        0.74930727362935       -1.28703868595328
H           -2.59664080163552        2.10431877008418       -2.90893951813694
H           -1.07626517925870        2.82242407266434       -2.44736663702311
H           -1.35505956839876        3.26114703071579       -4.68994914992440
H            0.00715063250027        2.15182226645373       -4.51727107752882
H           -2.08322460860012        3.03561046069557       -6.79303835771865
H           -0.42531454179792        2.42427039677288       -6.91839454609267
H           -1.75566789390956        1.53856453051569       -7.66740634433736
H           -0.94259350274622       -0.38513827855029       -4.66595849515673
H            0.13406260331363        0.31008195814915       -5.88744869484347
H           -0.92116203424502       -1.81464708926594       -6.59608546526813
H           -1.33898460592004       -0.51454354426178       -7.69199625469949
H           -3.37306725246541       -1.77756093926800       -7.19328386143116
H           -3.08222365154303       -1.66168937620939       -5.46162435031356
H           -3.71994224455332        0.65539818630302       -7.35179025881354
H           -4.75235976272748        0.01793824699879       -6.08643236675740
H           -3.61905718620242        2.05591203274110       -5.27533159992301
H           -3.17876297736872        0.60733059999353       -4.34935016575057
