32
 energy: -41.983830465544 gnorm: 0.000735459153 xtb: 6.7.1 (edcfbbe)
C            1.38722928297643       -0.24686294749830        0.06087981206265
C            0.52006311355896       -0.92767218837319        1.11548342718163
N            0.77101575393048       -0.36819347428218        2.42558777699407
C            0.15648673639039        0.72499888364077        2.95663748751357
C            0.71957067093371        0.95530068960152        4.17431055587938
N            1.67957114234021        0.00801177225040        4.36240648085980
C            1.68641050060788       -0.78667748552403        3.29525252365463
C            2.42049469860042       -0.22183544648688        5.57703916333491
C            1.65202923077701       -1.21526098493244        6.47134748874672
C            1.43323938122373       -2.51337105342823        5.74466789763202
C            0.26965429512652       -2.72317374059877        5.01176192372006
C            0.08867129501963       -3.89790795295613        4.30064472693699
C            1.07173006739616       -4.87249695858005        4.31092818899633
C            2.23343543896498       -4.67168178849422        5.03899609197154
C            2.41493463484087       -3.49704166331381        5.74743782129130
H            1.18592098203870        0.82070066365169        0.02426755565796
H            1.16777064909378       -0.67003836343961       -0.91434899741570
H            2.44311191739695       -0.39767110774063        0.27066459568627
H           -0.53670015027982       -0.78608494735326        0.88150283851069
H            0.73416824881274       -1.99758976280592        1.15212124240846
H           -0.62445884882246        1.25057724570462        2.44620803916053
H            0.50987511389436        1.71490404655979        4.89967075272824
H            2.33628993386765       -1.62744341290796        3.15300850139639
H            3.39706319805014       -0.63620480516687        5.31978009348329
H            2.55658012355705        0.72954327505542        6.09308411890717
H            2.24086193888239       -1.37887825822881        7.37326807509889
H            0.69518012602730       -0.77696707487625        6.75892851048961
H           -0.51492407265321       -1.97809206714968        5.02405489333695
H           -0.82586247055998       -4.05595807552275        3.74900590436799
H            0.92773143653626       -5.79177922942643        3.76528126383786
H            2.99506535794944       -5.43525671804982        5.06197784271828
H            3.31731027352286       -3.34905706932665        6.32232340284576
