23
 energy: -31.508241120953 gnorm: 0.000850031817 xtb: 6.7.1 (edcfbbe)
C            1.06223727619460        0.57546169560810        0.14661007798759
N            0.02122259333609        0.96741053680686        0.39343024559699
C            2.36266136595555        0.00784782841607       -0.15855795343523
N            3.01614666490826        0.59113316567560       -1.36406168304217
C            3.49888261471365        1.98221907087816       -1.11145544606214
C            2.27229540578219        2.86674819592562       -1.27772965835880
C            1.45165090872374        2.16437411112979       -2.37074981324390
C            2.03618358159135        0.74767082863481       -2.48379366691119
C            4.14403879456284       -0.29420254764720       -1.74869246651599
C            5.11027880131976       -0.40696892521682       -0.66827094009597
N            5.85102405608222       -0.47476442073719        0.19429322845188
H            3.01555343550749        0.13296108525002        0.71289684084704
H            2.20786803576465       -1.06673517785533       -0.31601531057165
H            4.24141759276158        2.22410082836665       -1.87521870624375
H            3.97020996386443        2.06011165888706       -0.13167571416020
H            1.70875886985572        2.94220213504055       -0.34918934912155
H            2.55869139523489        3.87454248640095       -1.56944217747868
H            0.39601897184949        2.14262931327996       -2.10874208165734
H            1.54585487624018        2.68209514942692       -3.32340953528155
H            1.27194389157279       -0.02755554621699       -2.42359678020093
H            2.56971922381288        0.62935939998745       -3.42815264875576
H            3.77178436337429       -1.29376739078352       -2.00052999999404
H            4.65546731699107        0.11438651874352       -2.62735646175271
