27
 energy: -36.471618876250 gnorm: 0.000249554951 xtb: 6.7.1 (edcfbbe)
C            1.04811513571996       -0.01924852411951       -0.08730530944944
C            0.37870980572615       -0.38582743846821        1.24410546902761
C            0.88563793905587        0.41807410380697        2.44668141638220
C            0.11058237359907        1.70794277685540        2.69935224172277
N            0.74832840429197        1.33347567626223       -0.50572765564365
C            1.58556164159337        2.33960258220410       -0.36633634691925
S            0.99615523443228        3.84515591836441       -0.85663908226873
C           -0.51558806757083        3.09335472127234       -1.30023064034799
C           -0.46644638380198        1.71292567262469       -1.03989924231973
C           -1.56609345975438        0.90867536838040       -1.33765596097887
C           -2.68466744810093        1.50664166921869       -1.87764517650611
C           -2.72829093872132        2.88032429531984       -2.12447786565114
C           -1.64653043293471        3.68894274977553       -1.84168516863082
H            0.70893658169087       -0.69981194338611       -0.87181171640020
H            2.13109481681863       -0.11472030588081        0.01031888133546
H           -0.70297402389128       -0.27160913150437        1.16360394003982
H            0.58882973289776       -1.44362479879054        1.40542782035243
H            0.78712077611441       -0.20552013919392        3.33547574739986
H            1.94890881060976        0.63620875678022        2.32746243055345
H           -0.94659448665623        1.49330644212275        2.83591005954505
H            0.47470700576345        2.18166207074804        3.60674987600147
H            0.21196846742636        2.42539967416746        1.88826075790334
H            2.57486551066748        2.21543099425593        0.03720466453841
H           -1.54460500078475       -0.15336902106765       -1.15679113750514
H           -3.54405472417721        0.90060627824979       -2.11612741010939
H           -3.62012786659080        3.31510789507476       -2.54644842539026
H           -1.67060940342341        4.74886365692792       -2.03456216668031
