80
 energy: -83.636365722407 gnorm: 0.000401526871 xtb: 6.7.1 (edcfbbe)
C            1.05158142665255        0.42661522423207       -0.76133890709683
C            1.16106031904258       -0.94627672549937       -0.10835451612369
C            1.60377345775442       -0.88650310538855        1.35462998227842
C            0.66268761221085       -0.11833184957492        2.28490055987557
C           -0.77007739271085       -0.65103435301769        2.34060501101246
C           -0.90507014145097       -2.09829671484196        2.81777123268351
C           -0.37832334585496       -2.36886620112820        4.22901591134040
C           -1.00127210669504       -1.50801102123796        5.33037213048994
C           -2.52731480027535       -1.56880590110298        5.41367728981353
C           -3.10173812877702       -2.95574074633096        5.70680092399240
C           -2.73281202933484       -3.53267060802234        7.07529112920819
C           -3.14298713762239       -2.67339402905051        8.27477712040317
C           -4.61306938837793       -2.24788411023672        8.29550297840260
C           -5.61226635659261       -3.40710374206798        8.34057579600441
C           -5.69450032749667       -4.09366457027833        9.70970892923484
C           -6.40798561680971       -3.24369475941650       10.77114954391238
N           -7.80904326151897       -3.63837479025514       11.09687181212366
C           -7.90823200413725       -5.05519522107513       11.59501951607144
C           -6.80743005137524       -5.59876145598360       12.51173272460398
C           -6.75262532535689       -5.10596163088410       13.96153451385667
C           -8.02856129359969       -5.38645950248017       14.74833210697174
C           -8.37287625916979       -2.72882866648681       12.15533923332048
C           -8.01936576437847       -1.23757406300428       12.14066588527182
C           -8.56997721259609       -0.36537006635491       11.00817921368264
C          -10.09234367788148       -0.36085614227404       10.93038893100750
C           -8.65091952462356       -3.55333690525301        9.88751124282075
H            0.25140622207788        1.01191899136358       -0.31523914899684
H            0.84075675337486        0.32220151250014       -1.82330790094527
H            1.98394127752105        0.97619911473938       -0.65043537461058
H            0.20316711780802       -1.46383276491320       -0.18648039187617
H            1.89517278060607       -1.54006113625959       -0.65875238142316
H            1.72458912095777       -1.90704396643376        1.72419699467386
H            2.58577633677683       -0.40845781817606        1.40068044391034
H            1.09167570498001       -0.12986662619401        3.28932534823490
H            0.62419131516150        0.92582874101500        1.96807442776348
H           -1.35068827836006        0.00148895762318        2.99665548213221
H           -1.21659477986018       -0.57905627205427        1.34693146640615
H           -1.96026614345882       -2.37767623343005        2.76708475796029
H           -0.37150695837868       -2.75354926777021        2.12677567536796
H           -0.54288372462096       -3.42463928487019        4.45750768846826
H            0.70096291796002       -2.20670128965514        4.24541823763902
H           -0.57246670535894       -1.81349682207432        6.28767116185317
H           -0.71453118141296       -0.46674839656352        5.17210382890705
H           -2.85605073010188       -0.86717342948955        6.18379801632878
H           -2.94792110017493       -1.22196952380359        4.46844733146599
H           -4.18968880882570       -2.90537280725838        5.61578293241502
H           -2.75428179165766       -3.65290004266112        4.94318257394748
H           -3.18471025855393       -4.52426614662785        7.16253573572428
H           -1.65264940794257       -3.67662078937990        7.12286759886071
H           -2.90322788386921       -3.22358136731751        9.18842832804691
H           -2.53584119494682       -1.76730721238283        8.28448956363114
H           -4.76622854296424       -1.58930161637555        9.15511623372966
H           -4.81649114452849       -1.65727597881072        7.40262168675461
H           -6.59497644927393       -3.03319060957784        8.04630628190024
H           -5.31766990373996       -4.14960704358355        7.60007826826288
H           -6.17070435501724       -5.06683851324842        9.59713019598808
H           -4.67596345700025       -4.28459983310583       10.04859065893334
H           -5.85070267693413       -3.25225249110869       11.70790764107528
H           -6.44218501722278       -2.21665772078539       10.40850666356712
H           -8.87423781038210       -5.15331948184737       12.09299327624423
H           -7.93142806982805       -5.70028817703762       10.71521481071174
H           -6.98791437184751       -6.67613734438478       12.54957474478186
H           -5.82961120826563       -5.46584910573976       12.05018354442380
H           -5.93374654137085       -5.64363678706797       14.44259762755941
H           -6.49517683550128       -4.04567358545699       14.01669267210436
H           -8.27466348163107       -6.44408327471049       14.70107665203463
H           -7.88395378284931       -5.12196237996314       15.79183738654187
H           -8.88140616164949       -4.81999679423136       14.37988496088783
H           -9.45839833640604       -2.83351005712025       12.11902781778678
H           -8.02971272260744       -3.11370372701148       13.11296005068846
H           -8.44016292153317       -0.85165920519385       13.07299361514849
H           -6.94015617243224       -1.09902080050629       12.21319636783355
H           -8.23649365383447        0.65446414556214       11.20797485707212
H           -8.14184089252521       -0.64145333064838       10.04166127887614
H          -10.51734780385702       -0.07731732280880       11.88981888787240
H          -10.42171824618769        0.36350648333144       10.19105563870362
H          -10.49768960430794       -1.32946909256972       10.64738763697404
H           -8.68944884591708       -2.52955067756888        9.52824207421043
H           -8.24967415774394       -4.18697223504816        9.10035929520164
H           -9.66257910138210       -3.88570790635546       10.11488648314017
