26
 energy: -26.689519139962 gnorm: 0.000227871611 xtb: 6.7.1 (edcfbbe)
C            1.16004825616987       -0.08619463157201        0.07290908323839
C            0.56231808629868       -0.24292899702678        1.46807286507702
C            0.90192393254986        0.92169296525855        2.39544323829232
N            0.49667468851619        2.24335169098914        1.84478610118267
C           -0.98225696132393        2.41271901998609        1.72263906349580
C           -1.71775366727614        2.41039084702390        3.05137038839406
C            1.14072797805840        3.36950246258111        2.58024563270006
C            2.57027765268616        3.59734494784467        2.11963371706504
H            0.67476264697510        0.70259691412982       -0.50154292015309
H            1.02692049161363       -1.00894439048943       -0.48401949608884
H            2.22797593162097        0.11484135093252        0.12554839952349
H           -0.51624560948574       -0.38714668180142        1.39913207431441
H            0.97140110451056       -1.14230739994502        1.92970746918467
H            0.42689238732301        0.79065078322310        3.36768309744816
H            1.98279945782736        0.94787181185572        2.54364039624049
H            0.87067563274615        2.26330743203639        0.88726779327465
H           -1.15851107534432        3.36004258397159        1.20792326465747
H           -1.36310375784722        1.61032529828879        1.08960006257756
H           -1.36114646099489        3.19197176267826        3.71544228690429
H           -2.77041279192270        2.59761866275044        2.85732054634237
H           -1.64759096538967        1.45209522782771        3.55704041267868
H            0.55767083248593        4.27368510577172        2.39638557089629
H            1.11101447382317        3.14859430847407        3.64792257355599
H            2.60870946505533        3.82451054542987        1.05620084063603
H            2.98319718885734        4.44847236708399        2.65374915913310
H            3.21219108246732        2.74421601269701        2.32158837942887
