42
 energy: -51.085569292959 gnorm: 0.000638167976 xtb: 6.7.1 (edcfbbe)
C            0.89223394263537        0.91796593960476       -0.66593824152518
C            0.32826547064494       -0.22851860836592       -1.03840152431826
C           -1.09714575552269       -0.36602358648926       -1.21323876278239
C           -1.73826030611144       -1.48528321338974       -1.58593526469253
C           -3.24171594164724       -1.47920188544438       -1.70162001857303
N           -3.77435679541740       -1.11873530059710       -3.06490112376561
C           -3.33704510994329       -2.11318012298437       -4.10444440814573
C           -3.96952519113357       -3.45951334871821       -3.95570792688323
C           -4.80991386545443       -3.96248310966736       -4.86317271102238
C           -5.45097562865651       -5.26404319508049       -4.83755921845899
C           -6.15760724118690       -5.67785197948125       -5.97035493334528
C           -6.78257056949410       -6.90883570202752       -6.00527170210105
C           -6.72243532376549       -7.74785053574767       -4.90463012776238
C           -6.03372268988448       -7.34735960130700       -3.76968673169345
C           -5.40239014193845       -6.12020145182529       -3.73396068969088
C           -5.24591127313554       -1.09190791444525       -3.00464668511961
C           -3.28837974609291        0.21449443883541       -3.45506288514191
C           -1.01926655519433       -2.78477841721691       -1.81567081678552
H            0.30718600338725        1.80340638614105       -0.47590018858887
H            1.95542270604677        1.01034000427042       -0.53527768065480
H            0.94079990018744       -1.09899153109031       -1.21909773788906
H           -1.66706787015091        0.53197112130625       -1.00871778852715
H           -3.64192025777267       -2.46169624561959       -1.44838058979744
H           -3.65783781801447       -0.74961553366483       -1.00318227818796
H           -3.60104928413503       -1.70080847166728       -5.08073722538203
H           -2.24940021011421       -2.18479331765834       -4.04053024778720
H           -3.68106603054327       -4.04376541997651       -3.09576978662910
H           -5.04488288388990       -3.36510921414073       -5.73724909950913
H           -6.20699201364748       -5.02711944931411       -6.83179503916367
H           -7.31882642932835       -7.21428277183702       -6.89048072690940
H           -7.21109429457061       -8.70936230950451       -4.92862456296839
H           -5.98921944084708       -7.99771883997582       -2.90916123702523
H           -4.87625472684637       -5.82619491049723       -2.83832967304898
H           -5.58039690477689       -0.35052644732991       -2.28161569075621
H           -5.65209907269598       -0.83929499962591       -3.98251976332333
H           -5.62670602040637       -2.07020826795227       -2.71648508028802
H           -3.59359460560305        0.95343026575990       -2.71647740339149
H           -2.20190949894508        0.21183356267216       -3.52134978733509
H           -3.70333322847891        0.49625509629091       -4.42092942769265
H           -0.27107237446354       -2.69485280487896       -2.60251176349310
H           -0.49556968063970       -3.08343404460500       -0.90838225162678
H           -1.70086324246049       -3.58746426274286       -2.07960119823261
