22
 energy: -30.278522860709 gnorm: 0.000506092074 xtb: 6.7.1 (edcfbbe)
N            1.33048301293989        0.63782001379923        0.32198115697330
C            2.42213716882838        0.32026737465109        0.22468269180164
C            3.81952738939972        0.00565112122878        0.03348168154087
C            4.31948388867088        0.61106968493705       -1.29168307694978
N            4.01084008354771        2.03287598040275       -1.34626578012880
C            2.84835195790657        2.43579515064543       -1.86833455029284
C            2.49917270461158        3.77256122034875       -1.85399160356825
C            3.36339692001227        4.69683128720928       -1.29411198586503
C            4.58144986771736        4.27083262624056       -0.75228378784672
C            4.85895156252176        2.91412037094568       -0.79969608619676
C            5.53612361343653        5.23518498606723       -0.14686536372079
H            4.38389481216645        0.39681626097656        0.88398931205487
H            3.94364089100645       -1.07890067486932        0.00778571762464
H            5.39862308751698        0.46843236169898       -1.37617850036473
H            3.83108894974919        0.11242446195896       -2.13183278782465
H            2.19814238037182        1.68674302551221       -2.29331123888774
H            1.55620177202555        4.07779585319691       -2.27778232131482
H            3.10577489791602        5.74481548644374       -1.27347969430524
H            5.78225185779801        2.52377884480198       -0.39573286307577
H            5.80805435812281        5.99953747035299       -0.87311651948438
H            5.06784655701770        5.74601388152609        0.69337628087980
H            6.43981226671534        4.74464321192606        0.20134931895145
