59
 energy: -61.489962481826 gnorm: 0.000484328286 xtb: 6.7.1 (edcfbbe)
C           -0.70760545308713        0.12376744797915       -0.94463788093087
C            0.29243611981848        0.03091514328948       -2.09205956253325
C           -0.35202574809935       -0.80142340963797        0.23138102064881
C            0.71448374168496       -0.28326474471397        1.22082982815671
N            0.52393344618967        0.99870794115451        1.99663872564249
C           -0.90126940494184        1.28242096936166        2.25818302577556
C            1.15990334443644        0.83041886154966        3.31991018353920
C            1.10992609023329        2.17662368303672        1.25635685550333
C            2.55827668206172        2.60472899480173        1.55359520653918
C            3.64665393945887        1.64960701700323        1.03546370768059
C            3.77913980435718        1.57461457272402       -0.48569946079026
C            4.79537377870043        0.52103706398547       -0.93367902465709
C            4.33187705555295       -0.91545356272871       -0.71630397815095
C            2.75271094869828        4.02037779272173        0.97564066654634
C            2.12605971043871        5.11730556037137        1.83020330849522
C           -1.61562427662433       -1.37390156029932        0.90126454063122
C           -2.16743180790702       -2.58687172038118        0.14054294286817
C           -1.36713739323561       -3.87547296864483        0.34013229408277
C           -1.50154410061045       -4.45651613370709        1.74308441230785
H           -1.68214318854783       -0.18127563741504       -1.32774396798589
H           -0.80931455347722        1.16417985704631       -0.63254423010621
H            1.30116546829850        0.28238382482583       -1.77329478544101
H            0.31009888188566       -0.97729175658498       -2.49802709538552
H            0.01269800823256        0.71077658252387       -2.89218922910374
H            0.16108151294145       -1.66454091748286       -0.21037673922588
H            0.84669200420229       -1.08097889080739        1.95469956680697
H            1.65307387536175       -0.17540874150184        0.67839709022519
H           -1.36313325919256        0.43667429763978        2.76047821201890
H           -0.98919517450026        2.15512603613675        2.90415973983058
H           -1.43281115567597        1.47745892967802        1.33166165707828
H            2.19972583391319        0.53128515847965        3.21668238885217
H            1.10912574088575        1.76303029928750        3.87877080421153
H            0.63138971341338        0.06498145930580        3.88621319663983
H            1.01309721964521        1.97869238459417        0.19033927555992
H            0.48402486942285        3.03764150867730        1.49305051727427
H            2.69616929047323        2.69797592926635        2.63381966970901
H            4.60114632778183        1.99484977360733        1.43800078082881
H            3.48878967507703        0.64693616346565        1.43690619794462
H            2.81556433264807        1.35263790547008       -0.94903706386480
H            4.10266828243418        2.54464866964348       -0.86313964732912
H            4.98828878090749        0.66403639055935       -1.99804128361336
H            5.73608922397403        0.68277345798448       -0.40518741621040
H            3.38835379781305       -1.09962588022621       -1.22799777907247
H            5.06906800576138       -1.60343301726479       -1.12003198918169
H            4.21183716470029       -1.14695388074272        0.34026560030160
H            3.82359161866576        4.21345986737498        0.91488146041778
H            2.35001975698433        4.07043171452441       -0.03671368786575
H            2.51451015943299        5.08384757177123        2.84553272417969
H            2.37007685645747        6.08908070397226        1.41117735457752
H            1.04125788502295        5.04411176194901        1.87154731260660
H           -1.39528361090922       -1.69128950775699        1.92132292369927
H           -2.40237657391217       -0.61981478396756        0.94152957392525
H           -3.19112486603268       -2.76564161838849        0.47287486972799
H           -2.20801713417377       -2.35403495115363       -0.92477719978372
H           -1.73461798856609       -4.61282504872128       -0.37480346362925
H           -0.31082372471297       -3.70880333761072        0.11549714624061
H           -2.54833915730628       -4.61648444891977        1.98901091959278
H           -0.98901079277126       -5.41281045766426        1.80158421478526
H           -1.06880958360758       -3.80099831957191        2.49619556932781
