24
 energy: -32.512102864926 gnorm: 0.000508585305 xtb: 6.7.1 (edcfbbe)
Br           0.47853310719325        0.78024529794633       -0.56267421272670
C            2.27322230368753        0.28844283327181        0.07659913284818
C            3.29247717648710        0.25050098484604       -1.05255347592674
C            3.36210906080781        1.54211743879487       -1.87778178812030
N            3.64400771986727        2.70956733312200       -1.05840796353046
C            2.67138671117079        3.57916211710512       -0.75618047389551
C            2.91383314494036        4.67173971816198        0.04373172290851
C            4.19178635184305        4.90051964117431        0.56242235647598
C            5.18395237412500        3.97136950955122        0.22280006703511
C            4.88314272660425        2.89976157250043       -0.58080843674538
C            4.49327145445477        6.07447714558265        1.40906148406566
H            2.53317607269260        1.01608029796174        0.84523076918559
H            2.17589106590409       -0.69425476545884        0.53401173790603
H            4.26682690236200        0.02231822350562       -0.61403411441245
H            3.04030539952830       -0.55524488007741       -1.74379124135208
H            4.14574307710347        1.44088257913620       -2.63195831510426
H            2.40757099680453        1.69504098304219       -2.38460962774718
H            1.68726118988431        3.38612821716075       -1.15808587168517
H            2.10525937880284        5.35065411791066        0.26466489302965
H            6.19157018177325        4.09466456890062        0.58775440531875
H            5.63497159861092        2.17660520650761       -0.86057742957924
H            4.95611730509055        6.85091415187400        0.79667754788444
H            3.59223273897775        6.49155642731602        1.84975422954671
H            5.20377196128412        5.82176128016419        2.19298460462094
