37
 energy: -50.110635571499 gnorm: 0.000405143486 xtb: 6.7.1 (edcfbbe)
C            0.76712524124070       -0.04005034982962        0.07585385205722
C           -0.42962061934785       -0.05192724331296        0.07157227561303
C           -1.87925519664990       -0.06749342465387        0.05970011541907
N           -2.45265995686773       -0.48367318791938        1.37455169351346
C           -2.05513355760888        0.51424046835602        2.42164940449106
C           -2.52664218717492        1.84798206358718        2.11259851065918
C           -2.90889288293462        2.96360876765566        1.86157094019168
C           -3.30082030955090        4.29312998202275        1.59833572880099
C           -2.50015556949089        5.32081563142461        2.05521316475321
C           -2.85538099538218        6.65196112187094        1.82043003459820
C           -3.99788959745045        6.95074123298822        1.12806798448206
C           -4.83971401555803        5.92837553671203        0.64214624938664
C           -4.49692683600572        4.57175029796430        0.87924932306455
C           -5.34924060615310        3.56113155252312        0.39389456574702
C           -6.48690984747101        3.87378673872306       -0.29742540069229
C           -6.82465310126676        5.21422665958556       -0.53605279965923
C           -6.02005808692720        6.21803136080336       -0.07500527396087
C           -3.91983437205855       -0.52778708324926        1.27183981589802
C           -1.94178368419979       -1.81309943773325        1.74501893115829
H            1.81746864336328       -0.02200824972249        0.06124423270300
H           -2.24557669811346        0.93902530262940       -0.16886912722206
H           -2.22697987648580       -0.75989251220596       -0.71234816391103
H           -2.46523908484340        0.18483899068188        3.38134330815826
H           -0.96232529389285        0.51966660105560        2.48526887063271
H           -1.59740400947991        5.09058097466278        2.60130583893774
H           -2.21744962304210        7.43927922902998        2.19082413513045
H           -4.27351683146785        7.97807055872839        0.94314794310361
H           -5.09309821416766        2.52716379263905        0.58466101643139
H           -7.13428564333849        3.09067555894750       -0.66300586749787
H           -7.72553529931913        5.44352762749944       -1.08385541671304
H           -6.27483229648087        7.25220965053924       -0.25165120202715
H           -4.22618915145089       -1.22314858258042        0.49234545897825
H           -4.35025916550219       -0.84974028128158        2.21891020235206
H           -4.30280915980663        0.46504426204532        1.03795475057623
H           -2.24635472673668       -2.55027189059609        1.00351897196329
H           -0.85362522283577       -1.79425222203801        1.78984622540746
H           -2.33432216554194       -2.11017949755511        2.71596970747558
