89
 energy: -100.239084773475 gnorm: 0.000462055575 xtb: 6.7.1 (edcfbbe)
C            1.24804944213866       -0.72120366058358        0.06759003879526
C            1.23589737354730        0.79783987528406        0.18837834084144
C            1.67672247856726        1.50882070844388       -1.09200730096536
C            0.78009102316721        1.26733808628608       -2.30858143655348
C           -0.68688272579671        1.66044629293035       -2.12132355968114
C           -0.91830286887605        3.11620117119807       -1.71243318992377
C           -0.39336242893443        4.15639555528006       -2.70324821114927
C           -1.04983247911756        4.12543378992240       -4.08485883527081
C           -2.56818951352812        4.32519428076194       -4.08850030291237
C           -3.05627749033009        5.57513926958485       -3.35313951521101
C           -2.52842805316806        6.89811511828397       -3.91033003796603
C           -3.08202243249058        7.28466564718649       -5.28333445427378
C           -4.58961690020246        7.54674170777986       -5.24992107045506
C           -5.07167622269479        8.47793596809273       -6.36395408943569
C           -4.83946447493514        7.98357582223561       -7.79777497547346
C           -5.61305260901786        6.77983993370642       -8.35947293259663
N           -7.11054614459606        6.87333014791815       -8.48832111844446
C           -7.51974669091191        8.28481732012449       -8.76772036996408
C           -6.97663542836816        8.89811771850325      -10.06439607480934
O           -7.97487077948080        8.90708823445908      -11.07790675249767
C           -7.64767814049883        8.37606415984304      -12.28302587500101
O           -6.61213263683832        7.79606764259392      -12.46406444952950
C           -8.72985510296843        8.60938383787928      -13.28304652106912
C           -7.66123433641444        6.01098651065145       -9.60967293261692
C           -6.69843362612814        5.18969364715227      -10.46900464398069
C           -7.48592546716707        4.17684574921942      -11.31242429428186
C           -8.35697546376844        4.82310230369135      -12.38232322906850
C           -7.72396902130689        6.50915678259083       -7.14898116237225
C           -8.20836292245081        5.07832047609645       -6.87469827357562
C           -7.21815598279556        3.91594590736384       -7.00221168590779
C           -6.18879190678528        3.85221228503099       -5.88050338029971
H            0.51277531059150       -1.06374552104999       -0.65611422575066
H            1.01478781623141       -1.17697729956004        1.02720735896767
H            2.22944970484060       -1.06973382439950       -0.24673857195749
H            0.23715033968572        1.13201023299709        0.47483011594921
H            1.91788954267158        1.09209891100823        0.98998325557779
H            1.73521860760276        2.58111336690341       -0.89347953548391
H            2.68552599755517        1.17302656176468       -1.34566307457161
H            1.19725474322654        1.81991820505765       -3.15360339003846
H            0.81608056655418        0.20893871639848       -2.57404575154775
H           -1.21711880073049        1.45725039574321       -3.05499250464480
H           -1.13280233295548        1.01994300343140       -1.35781055213843
H           -1.99056009760729        3.26420519457160       -1.56473751129741
H           -0.43796402069990        3.29458867996482       -0.74885503423629
H           -0.52621509650084        5.14732434362190       -2.26364031024381
H            0.68001581277153        4.01226067701369       -2.83690530947402
H           -0.58247960117363        4.89757370044517       -4.70084991420498
H           -0.83503366071161        3.16749815134370       -4.56254188221940
H           -2.90377769170092        4.35504726944843       -5.12897009992098
H           -3.04252768916668        3.45695487938786       -3.62697313866688
H           -4.14895381582280        5.58396386490396       -3.36575692680469
H           -2.75478936190218        5.50465713762898       -2.30792886734460
H           -2.77643347602744        7.69430398526732       -3.20414216935170
H           -1.44137256903992        6.85118176949282       -3.97386949624082
H           -2.57306281661368        8.19632256005493       -5.60470652378965
H           -2.84589154528926        6.50119434718256       -6.00541618313326
H           -5.12811127865375        6.59876651785443       -5.27533587321397
H           -4.83524468593745        8.02641101258337       -4.30006099056671
H           -6.11974430934675        8.73286396255734       -6.18781374252886
H           -4.51152322352156        9.41121633573200       -6.27175407987970
H           -4.95353268051939        8.83363900597297       -8.47029411873762
H           -3.79129443139802        7.68343862344336       -7.86379675199844
H           -5.20477150139347        6.61947666430591       -9.35564068139310
H           -5.39898149412698        5.89382809279090       -7.76387239860176
H           -8.61075743720743        8.31874197911653       -8.82971166923235
H           -7.21244368851395        8.89920308088978       -7.92338735245371
H           -6.70714809705546        9.94295384027303       -9.88226941698232
H           -6.10337848588926        8.36672772954333      -10.45645454894110
H           -9.67090939935335        8.82698069715393      -12.78798688674454
H           -8.44904856535821        9.46749391982849      -13.89257389766576
H           -8.82253009260226        7.75006346439056      -13.94137695445333
H           -8.37594270504200        5.31933877065364       -9.17320881276361
H           -8.21841528233982        6.66194329844793      -10.27946542498164
H           -6.13929230985127        5.82994162861955      -11.15323364195549
H           -5.99503779130463        4.62738370480641       -9.85477155640955
H           -6.76161828835486        3.52645371933013      -11.80382594839163
H           -8.09932517005019        3.55051564054169      -10.66050818812358
H           -7.75798706260574        5.48930533205686      -12.99766261394469
H           -8.78080722821849        4.05630179750152      -13.02427399069820
H           -9.18093249070166        5.38586355952217      -11.94881258613052
H           -6.99088418552012        6.77386378777889       -6.39119388699364
H           -8.59768225690892        7.14801146973377       -7.00584041163052
H           -8.55169288050727        5.10713612970522       -5.83670767522360
H           -9.09691750471468        4.85741158490917       -7.46958299034887
H           -7.80472324095851        2.99613071204894       -6.96870191171130
H           -6.71366941310737        3.93164077442771       -7.96770864484189
H           -6.67992608821650        3.83084947764120       -4.91100864855320
H           -5.59506416098725        2.94724446894672       -5.97580449071140
H           -5.50464690385993        4.69652761884182       -5.89798667546376
