32
 energy: -33.018110152758 gnorm: 0.000377011874 xtb: 6.7.1 (edcfbbe)
C            1.13351868117053        0.12468777936670        0.16587326274153
N            0.56863787839545        0.40923034054156       -1.16600217878336
C            0.84236385660100       -0.72954732616170       -2.10629202334771
C            0.43419691549663       -2.14703555451582       -1.69111344931715
C           -1.02556428746540       -2.57327286620852       -1.89507148981172
C           -1.58983353451214       -2.32784961054176       -3.29572361784588
C           -0.81344018207159       -3.04706020675799       -4.39268495902813
C           -0.90086758093526        0.65883621252639       -1.07225324020302
C           -1.31918181915233        1.85122808479250       -0.22549710953540
C            1.24610347593973        1.59874380896519       -1.72028241114554
H            0.53583787340694       -0.62227131133964        0.68292726834259
H            1.15273988801464        1.03018865541804        0.76777161644373
H            2.15312376890288       -0.24312883627649        0.06549654510521
H            0.37192239597886       -0.48713539476137       -3.06008311412026
H            1.92383541740571       -0.73615910853019       -2.26039956135926
H            1.04644073957048       -2.80730366900298       -2.30815867861875
H            0.71998487581016       -2.34580738483082       -0.65834129630830
H           -1.06218610936360       -3.64685172833974       -1.70115144466564
H           -1.68439982606614       -2.10786332188572       -1.15978110011372
H           -2.61852386188924       -2.69095520770525       -3.30228100995772
H           -1.63398539448720       -1.25817976142617       -3.51555338713304
H           -0.74313571029985       -4.10883865752916       -4.17200653406146
H           -1.32539875050792       -2.93384860433154       -5.34423894008978
H            0.19305402261427       -2.65040147538366       -4.50489366864069
H           -1.27627527467918        0.79439999760674       -2.08841245241383
H           -1.35440459084491       -0.24007699470420       -0.65726480000650
H           -0.98974232484516        2.79843645063553       -0.64206219737590
H           -2.40612847827487        1.87209533324926       -0.20411930465194
H           -0.97780871668168        1.77037267288623        0.80226821747883
H            1.11106335853892        2.45358322188917       -1.06246652310072
H            2.31375106749803        1.41093893222877       -1.81921271218584
H            0.84071222673308        1.84055553012621       -2.70132970629117
