55
 energy: -82.569682042678 gnorm: 0.000448781896 xtb: 6.7.1 (edcfbbe)
C            2.31037045656027       -0.94743154147845        0.60062476182244
C            1.04854803957511       -0.68284255288716       -0.23130756317550
C            1.12545881229751       -1.36739099103229       -1.54409255267841
N            0.70418754292315       -2.62051108615654       -1.75569441794160
O            0.11176153528513       -3.33595213641987       -0.75704364960593
C           -0.11404621672221       -4.71944617438400       -1.02685949124928
C           -1.14797303384634       -4.98083492145894       -2.09395587951078
C           -2.28463932430272       -4.18629203570051       -2.17434374579457
C           -3.23611197074787       -4.43255949002545       -3.14805619437827
C           -3.06286301817175       -5.47836038546034       -4.03922151263493
C           -1.93449807288648       -6.27719672206466       -3.95779601827372
C           -0.97518873130091       -6.02656902526147       -2.99218135570172
C            0.95935374902594       -2.98286386169011       -3.04132730224156
C            1.56247526788002       -1.90948800261055       -3.62193730219423
N            1.66648520493927       -0.92688616199329       -2.68641357084157
C            2.20066233626689        0.40014598920656       -2.95155430117990
C            1.18530083901664        1.22489656638701       -3.70565879198850
C            1.10163029483236        1.12693862686392       -5.07850415721949
C            0.15210832008248        1.84951379836297       -5.80391074190082
O            0.21409898981338        1.62593160322310       -7.13468185582922
C           -0.47640200344248        2.43017520710625       -8.07293560780255
C           -0.75218259321158        2.68417847244919       -5.12339416174748
C           -0.66304995543598        2.77318800516602       -3.71683626771545
C            0.30105606972209        2.05082974381277       -3.02530503708951
O           -1.57910748742771        3.56708489836171       -3.09907711214959
C           -1.48675787020612        3.78078551885290       -1.71068181389366
O           -1.70894954650560        3.32140011294043       -5.85688283275028
C           -2.12015212713470        4.63310737828671       -5.51220829116914
H            2.42152273843085       -2.00998042746839        0.79782504431889
H            2.23180702663858       -0.43107961021735        1.55223019120641
H            3.20097400449134       -0.59262515205318        0.08811385023723
H            0.17989311261994       -1.06865107963938        0.30417223962919
H            0.91759709171350        0.38864086322282       -0.37822166362497
H            0.83462752864937       -5.21764541975430       -1.26111116448903
H           -0.46704012076477       -5.08197364714559       -0.05655286780990
H           -2.42365036149153       -3.37976411865392       -1.46885702458070
H           -4.11716477230973       -3.81252823101401       -3.20453205917939
H           -3.80880899204398       -5.67420412931103       -4.79325958000713
H           -1.79889406174691       -7.09652191469870       -4.64623309780426
H           -0.09663099167166       -6.65275043464681       -2.92700281142280
H            0.69294502815629       -3.93359329442037       -3.45353338147285
H            1.91438810343946       -1.78646792644529       -4.62478043814904
H            2.46139742004631        0.86986623585566       -2.00357119678907
H            3.10549852928624        0.28010360910688       -3.55077369160136
H            1.78594342135201        0.51769090323816       -5.64619197252474
H           -1.55711225845911        2.31762603688555       -7.98368323222470
H           -0.20727617867907        3.48313487445193       -7.97185104238786
H           -0.14668697045521        2.06523611142769       -9.04513871114472
H            0.36508406401478        2.13414425470454       -1.95308921736652
H           -1.66195372493615        2.85803094676697       -1.14818271214809
H           -0.51918543218328        4.20820478336222       -1.43150873133922
H           -2.27419777257979        4.49460954187276       -1.47546697954930
H           -2.87129189700892        4.62435510861845       -4.72181658627467
H           -1.27333050044911        5.24921654703502       -5.20447524200965
H           -2.55561954093172        5.04258473653071       -6.42355115467165
