42
 energy: -51.182424618289 gnorm: 0.000350334186 xtb: 6.7.1 (edcfbbe)
C            1.17970833507861       -0.15852535219233        0.23246725715683
C            0.69463922078037        1.11942732539961       -0.44133204490415
C            1.09860880411105        1.21738001982439       -1.91345976141895
C            0.52566124402315        0.12006012060646       -2.81335986427992
C           -1.00262324277516        0.04312818280640       -2.84581598090903
C           -1.71020406506993        1.33578553964272       -3.26041554579319
C           -1.26750413356789        1.93115315360566       -4.59797891424884
C           -1.59042386300887        1.06361784503603       -5.82354537655979
N           -3.02630532996657        0.83788144498061       -5.94741976019997
C           -3.76423227815229        1.90485127631729       -6.23159293536762
C           -5.15032313890359        1.87994110108574       -6.25298688503486
C           -5.79517620115081        0.70472014426051       -5.94798369105504
C           -5.04139986470255       -0.45101619555920       -5.68324712070736
C           -3.61313662057210       -0.38006653794650       -5.71565625522485
C           -2.88727496963475       -1.57128365531216       -5.53276091385303
C           -3.53533916954071       -2.75308733199395       -5.27591444404386
C           -4.93345686324759       -2.81296092422726       -5.18935249596984
C           -5.67197132248759       -1.68338336412420       -5.40180335864017
H            0.68398275293045       -1.03589495522670       -0.17589434256137
H            0.97133480323205       -0.12131160730738        1.29867420450770
H            2.25270411722888       -0.27444700239389        0.09911203678287
H           -0.39005348372179        1.19526830058083       -0.34200277573295
H            1.12648240355480        1.97594923625877        0.08031891432716
H            0.80267069985096        2.19780517918670       -2.29376295214467
H            2.18771517861307        1.16372395467479       -1.97640848113632
H            0.91138136444916        0.26840058939432       -3.82546704772197
H            0.90077229037605       -0.84605579973634       -2.47327998950403
H           -1.29625985302874       -0.77372468692880       -3.50932025263167
H           -1.36330382324411       -0.22253207842413       -1.85153521659518
H           -2.78945167080249        1.15345940693651       -3.27695008668368
H           -1.52900665201317        2.09037105379070       -2.49477407094338
H           -1.73597729017601        2.91090286080258       -4.71101536004218
H           -0.18927363576489        2.08665139108893       -4.58800480775269
H           -1.24492755539377        1.57342236589573       -6.72666221793084
H           -1.06110042958429        0.11995977885285       -5.74486631253668
H           -3.23268119564803        2.82158608801214       -6.44116926544697
H           -5.69414841188643        2.77881301397100       -6.49133341378388
H           -6.87273270085384        0.65160074345577       -5.92041498307128
H           -1.81396047509288       -1.59268241630804       -5.61633474954573
H           -2.95741540128948       -3.65470965085048       -5.14506411844883
H           -5.41586303524971       -3.75295756560623       -4.97452330907195
H           -6.74998453769468       -1.71062099233281       -5.36999331127480
