36
 energy: -96.844852064689 gnorm: 0.000321903911 xtb: 6.7.1 (edcfbbe)
C            2.96956172189808        0.22100538611008        0.49263452671033
N            1.91629035926543        1.18957975483288        0.60850325214148
C            0.80586461457879        1.05409145250089        1.38403539514959
C            0.09054939592189        2.20458901126439        1.27330575902038
N            0.78109381362396        3.02762304887920        0.43003863156285
C            1.88006343544606        2.38238014434624        0.03639212246324
C            0.35876969169748        4.34517259240305        0.01486925258414
C            0.39255026167537        5.38335637594450        1.14343482818555
C            1.75914280874033        5.90765412999885        1.57896317170178
C            2.67432536433542        6.41510629456372        0.42153083266718
C            3.83007421984408        7.37927074798406        0.84524861456199
C            4.73474590022962        6.86433068628478        2.01088339662436
S            4.16185773297276        3.13525887553334        3.04701112339390
F            2.62197113055018        2.55302365084903        3.02305661790736
F            4.12058812536971        3.08438301735218        4.70563420566419
F            4.82717843906952        1.65831030316200        3.00542779833360
F            4.08089775192374        3.04036787637759        1.32743345466689
F            5.00684108663477        5.54729921683967        1.87593421169753
F            5.87641632766840        7.51035344896951        2.03893900209948
F            4.13273287188720        6.99499546555809        3.18451611473824
F            4.60893405089734        7.58246924377085       -0.22656916888017
F            3.30918645693610        8.55934672653225        1.20405450790645
F            3.20542060209652        5.34545331385835       -0.20575804403710
F            1.91556196111787        7.04743972021108       -0.49093465071511
F            1.57616398696837        6.90349464957341        2.46270727366849
F            2.48562220483957        4.95583852075046        2.25659832528310
H            2.56970359260983       -0.73245371270069        0.14797877602376
H            3.44124280316655        0.07535289046171        1.46523550970659
H            3.72180128311877        0.57992967848480       -0.20499960068242
H            0.60903672484026        0.17456379909662        1.96218788260235
H           -0.84130821860203        2.48036270512401        1.72202052278387
H            2.63435456205750        2.78147737592376       -0.61388931429458
H            0.97158361318240        4.65650248586061       -0.83243473431109
H           -0.67890033712331        4.27808395139454       -0.32697403917001
H           -0.17835883597864        6.26059801949800        0.82821143941242
H           -0.07564950350125        4.98195915235509        2.04608300279431
