25
 energy: -30.274554875716 gnorm: 0.000512722630 xtb: 6.7.1 (edcfbbe)
C            2.36909059536056        0.61825569159093        0.64828246941646
C            0.89175417828135        0.50863133132530        1.00309002000867
C            0.20928103852926        1.87867522253953        1.09070999950698
N            0.20829588352373        2.55552747955878       -0.18777475977491
C            1.12654433443947        3.49268064236387       -0.56604363842069
C            0.84370460224636        3.84837677730852       -1.84548165931402
N           -0.24176408103396        3.11948135171519       -2.23496295499809
C           -0.61817680971780        2.33430795612690       -1.21660376680324
C           -1.76030187336108        1.40114572030431       -1.26934650810581
C           -0.88224587759174        3.18287146011611       -3.52109537092816
H            2.51208193481138        1.05668335222316       -0.33751992005634
H            2.82066108339567       -0.36899253283386        0.64339121341997
H            2.89718942962603        1.22463019068304        1.37978403994915
H            0.37937991905378       -0.11218019338948        0.26596254134964
H            0.78742641041952        0.02646159511738        1.97482172218227
H           -0.82003487757697        1.76878554492075        1.43814093261815
H            0.74609900767498        2.51176816880631        1.79924427155695
H            1.89804389851222        3.83595466139033        0.09137141052168
H            1.32758098348857        4.55120947260870       -2.49126873895178
H           -2.64721574401049        1.90884602418220       -1.64760170041791
H           -1.54460706545858        0.57161271518835       -1.94453933824796
H           -1.98319395168703        0.99300043635798       -0.28882162179359
H           -0.89617528336966        2.19799797266854       -3.98908333154531
H           -1.90961764854216        3.53613378266343       -3.42031811704575
H           -0.33587008701211        3.87137517646332       -4.16115719412554
