23
 energy: -23.523115561739 gnorm: 0.000393757976 xtb: 6.7.1 (edcfbbe)
C            0.97578441358346        0.09109688044932        0.14649456842600
C            0.27917208033110        0.34491299306063       -1.17919393827686
N            0.73953768173427       -0.57560838690967       -2.25656954150407
C            0.39529271493541       -2.00870669797273       -2.00592738908306
C           -1.09694125234276       -2.28820231168939       -1.96590367676601
C            0.29191043538656       -0.10959861041226       -3.60238863952388
C            1.19754903928578        0.98144048907863       -4.14749828043374
H            0.67595963601569       -0.84971064568786        0.59878773988810
H            0.70814370493402        0.88375874983918        0.83971143792831
H            2.05794200271887        0.10332824056129        0.03353046552470
H           -0.80064624742098        0.23815736902831       -1.07550769763078
H            0.49157981522471        1.36375834055862       -1.50652178388545
H            1.76562196987016       -0.52533227938893       -2.25792296401747
H            0.85752631075547       -2.59629947123354       -2.80226804562299
H            0.85281751421471       -2.30534179442921       -1.06131669655693
H           -1.59347234017875       -1.98142863475139       -2.88164938654499
H           -1.23841846092371       -3.36021285156668       -1.85809566697530
H           -1.58154925546960       -1.81153728629996       -1.11915071784473
H            0.30972670202891       -0.96263405153747       -4.28288793414375
H           -0.73518840085927        0.24786922141623       -3.52087898165039
H            2.22099359666948        0.62731443454286       -4.24962310822101
H            0.84939640706894        1.27115949651383       -5.13472080183403
H            1.19327193243764        1.87271680683024       -3.52639896125171
