20
 energy: -24.396344602580 gnorm: 0.000782964170 xtb: 6.7.1 (edcfbbe)
Cl           1.39379306275262        0.24460542783059       -0.93069786941368
C            2.84607080601675        0.07473377026181        0.13138010469570
C            3.17439457822642       -1.38425126776527        0.45504160676379
C            2.85088009686807       -2.38426294795613       -0.65930600970046
N            3.22377765136690       -1.90823756376916       -2.01384666089055
C            4.67559801912745       -1.75941553977366       -2.18610868016497
C            2.66284675501573       -2.78444180592510       -3.05502798829611
H            3.66104432915955        0.57663865450198       -0.38878483185663
H            2.63013367035962        0.62597756683197        1.04565584072400
H            4.22806209655945       -1.43327259741789        0.73233269384541
H            2.60144273210649       -1.70091097517736        1.32657602301553
H            3.35718957315408       -3.33117820380892       -0.46338108735432
H            1.77433371935524       -2.56025384197864       -0.66660270122857
H            2.75449945455197       -0.98105714205964       -2.08741564005879
H            5.15809522645019       -2.73102349687400       -2.08561805467100
H            4.89664170914984       -1.36158245414273       -3.17463469558071
H            5.08661153676710       -1.08422210920599       -1.44083343205388
H            1.57915730496669       -2.82619275113085       -2.96866977595183
H            2.91743540960554       -2.40405704570165       -4.04226184318209
H            3.06552226844031       -3.79114567673920       -2.95200699864101
