33
 energy: -44.088103933113 gnorm: 0.000184780514 xtb: 6.7.1 (edcfbbe)
C            1.14723703091427        0.01015618284753        0.61626734309294
C            0.35805912379863        1.20197854258819        1.14597422552394
C            0.77761588747732        2.53122939714705        0.51841150100355
C            0.40537761206099        2.66638453632400       -0.96597080031270
N           -1.03468575627385        2.71359515024558       -1.13346410157498
C           -1.72721018765764        1.59056016492794       -1.36665155871876
C           -3.09896306922450        1.59646398275713       -1.44999070015208
C           -3.80844786818609        2.79503614744501       -1.29828084822539
C           -3.05241523053425        3.95153124902930       -1.05712447265397
C           -1.68450874923630        3.87550117686057       -0.97372326840350
C           -5.26457533113360        2.83953152818211       -1.39363840487112
C           -5.91389734637381        3.92912716500761       -1.98025288729549
C           -7.29895857899396        3.91141088301772       -2.05281835602821
N           -8.03539050376864        2.92353271625727       -1.58106622786606
C           -7.42994849961890        1.89513060851624       -1.01831216695171
C           -6.05129703375924        1.79361009232695       -0.90397199927384
H            0.98424796302393       -0.15580932258361       -0.44644562438137
H            0.85166379240973       -0.89312792287162        1.14213008410005
H            2.21149467433194        0.15987500836785        0.77679953740901
H           -0.71398891726513        1.03659314314806        1.00327894944288
H            0.52670210960678        1.27583472911708        2.22092609047934
H            0.32518688201540        3.35577354568536        1.07351449320417
H            1.86038619543112        2.63403529289360        0.59395401897853
H            0.83587375388767        3.58610528307162       -1.36637684144600
H            0.80324869415244        1.82150097496324       -1.52849132021308
H           -1.16260279451880        0.68021276859531       -1.50132044126321
H           -3.61985181613246        0.67495295614642       -1.65550982340648
H           -3.53958764689582        4.90316246920621       -0.91676916252899
H           -1.08334537970766        4.75139872233700       -0.77908214137387
H           -5.35564825450856        4.74847909326100       -2.40485363628820
H           -7.84219234179194        4.72782445306055       -2.50784080331852
H           -8.07754924891251        1.11425682214293       -0.64476584932546
H           -5.60569916461965        0.94331245997772       -0.41221480736085
