27
 energy: -32.340028339362 gnorm: 0.000142206702 xtb: 6.7.1 (edcfbbe)
C            1.20035055810976       -0.15933676832520       -0.22535439411087
C            0.45030769513610        0.85176486001855       -1.08018854160474
C            0.75750867675321        0.85803096003580       -2.57976499429472
C            0.06067034714919       -0.21923951871889       -3.41873610450954
C           -1.46816138514561       -0.20877446698682       -3.33585818758611
C           -2.09079720383807        1.11198487472778       -3.77040102119979
S            0.66083606844806       -1.90642806852926       -0.40807149348070
C            1.79570813445931       -2.65711046496796       -1.47094080571169
N            2.73688379836891       -1.99170945663622       -2.11985753309517
N            1.68830172906713       -3.97204490063365       -1.59629732910467
H            0.98396223546126        0.03503435475053        0.82666238855893
H            2.28026663577142       -0.11581142392758       -0.35859471664502
H           -0.62113072926421        0.72730011483959       -0.92701617160586
H            0.71893910790854        1.83113716973208       -0.67601419004708
H            0.44586393358376        1.82714417961474       -2.96929199949448
H            1.84072486901872        0.80220974559571       -2.73587923720456
H            0.34771172164365       -0.05562965001447       -4.45970316465891
H            0.40788043265064       -1.21786188245262       -3.14373551908972
H           -1.83814845647210       -1.00281687179651       -3.98764494916644
H           -1.79342638001074       -0.45277004232270       -2.32215020417232
H           -1.73336856452478        1.39505612931532       -4.75743175880174
H           -3.17183494111023        1.01371903644800       -3.81658269330419
H           -1.85781577982720        1.91274394735343       -3.07342024574027
H            3.38851934312240       -2.46771445549887       -2.72614140720426
H            2.74541382689225       -0.98173920820647       -2.13077782539855
H            0.98855850296292       -4.47576280659104       -1.07348026946910
H            2.29260582369116       -4.50398538682242       -2.20460763185658
