36
 energy: -56.350002067672 gnorm: 0.000849604123 xtb: 6.7.1 (edcfbbe)
C            0.02801198170859        0.68596341898591       -0.02198233376648
O            0.59370376742718        1.26206424819547        1.15887325204825
C            0.40117719087629        0.58773208304512        2.29045778811610
O           -0.18682062549673       -0.44410595371981        2.39956128445940
C            1.06072303594441        1.31340050036101        3.47939334548930
N            1.32260928380927        2.69847494703079        3.20789518082630
C            2.43535542096107        3.21100338178912        2.66957808930278
C            3.60504330430838        2.40323808206027        2.27527947647123
N            2.29674050095888        4.53499426117918        2.51530383410739
C            1.04628332871889        4.90272457042965        2.98472082976886
C            0.41475579094361        3.72177034843450        3.40756730146906
C           -0.87703184756355        3.73202615244963        3.91532622434169
C           -1.50789758777897        4.95763731106746        3.99241808458558
C           -0.87842724762693        6.13347454738823        3.57965121926766
C            0.40427964813755        6.13055876444597        3.06853127445358
C            3.35681952082569        5.45066936970015        2.19549463222466
C            4.39520132261818        5.45768375768256        3.34314736761182
O            4.36083548429185        4.59665932849929        4.17770253392262
C            5.36625682761078        6.58567988817254        3.29061916129283
H            0.14432349524418        1.42874436484118       -0.80620402101687
H           -1.02522078869511        0.45457752078375        0.13945205314476
H            0.55646805361229       -0.23256766148840       -0.28029865371161
H            0.39090724894289        1.22743058980589        4.33813426804158
H            1.98844732159968        0.79013978905103        3.72566745580566
H            3.28187622865874        1.49588260038025        1.76764213277326
H            4.26259090460026        2.95885084712861        1.61318205531435
H            4.18287290141182        2.12245690231981        3.15795800046745
H           -1.37332656565585        2.82886652254728        4.23020458469314
H           -2.51233241374514        5.01039541970505        4.38054317877803
H           -1.40982137044799        7.06800359872930        3.66150248806765
H            0.87308910170588        7.04785965841061        2.75177447178630
H            3.86200859885160        5.15511547950183        1.27109546987844
H            2.94131811093670        6.44814613151377        2.05416430283475
H            5.63545898675631        6.83780896446406        2.26863837655869
H            4.90259138179133        7.46253748463776        3.74369476880114
H            6.25340970375378        6.34288278049204        3.86988052178296
