24
 energy: -25.628215361555 gnorm: 0.000494940433 xtb: 6.7.1 (edcfbbe)
C            1.13126335963779       -0.13817331346433       -0.10116756836909
C            0.48101169022688       -0.49261204373120        1.22511602720719
N            0.93652042939892        0.38004901520196        2.34347604531092
C            0.55416050268179        1.81752662415807        2.16065744838552
C           -0.93161924114909        2.02487074574521        2.13498037970610
C           -1.59759947456456        2.62033623888511        3.10727279960482
C            0.47969758549669       -0.13204929742226        3.66755717510052
C            1.26458129822218       -1.35024121786718        4.12136464634829
H            0.78703351162375        0.81512879821522       -0.49142776476300
H            0.87085875166711       -0.89930787297849       -0.83157333481898
H            2.21589916733542       -0.11899010399723       -0.01780414930919
H           -0.60456640062554       -0.41739593582238        1.15777281043531
H            0.73835703467053       -1.52007573570455        1.48493034945775
H            1.96289296698160        0.34330841263290        2.34455319423771
H            0.99267865625087        2.38536266584316        2.98424593053135
H            0.99617361370862        2.16993777871905        1.22683277315354
H           -1.44571186647584        1.69935657975563        1.24230404680680
H           -2.65822965275885        2.78432593599238        3.04344669402440
H           -1.11429624882524        2.98580507100328        3.99831928789769
H            0.61034107326845        0.66854638556268        4.39780553925471
H           -0.58576776901496       -0.35490980422896        3.59513116327036
H            2.33074271872580       -1.13774091209679        4.16451588597207
H            0.94197593481545       -1.62080684722815        5.12279322457733
H            1.10184235870204       -2.21507116717319        3.48479739597809
