38
 energy: -45.797256742038 gnorm: 0.000220266978 xtb: 6.7.1 (edcfbbe)
C            1.09113213402032        0.38213214885414       -0.09821931175479
C            0.90613215765793        0.45772477024692       -1.60660557064807
N            1.13184653818139       -0.81407344973822       -2.35602140988822
C            0.25729478809217       -1.89806376931617       -1.78737326432305
C           -1.13251372483449       -1.49750247483353       -1.72668130719351
C           -2.28526629939610       -1.15041445206315       -1.68531335672357
C           -3.63572723278015       -0.73880694608731       -1.64087681283415
C           -4.07604260581022        0.29047586321256       -2.47430043360868
C           -5.39693211229043        0.69188885644017       -2.42737118718556
C           -6.28260787638714        0.07373851017764       -1.55845285671052
C           -5.84674657377531       -0.94995638528486       -0.73139608266776
C           -4.52771872796823       -1.35933219885801       -0.76599082126275
C            0.72623642940422       -0.64891914745793       -3.79435108959817
C            0.95649416379844        0.70777107099311       -4.44538632370618
C            2.53901593423725       -1.29909724324188       -2.23230019968729
C            3.61919336057888       -0.42586612806590       -2.84907961787303
H            0.35695267104474       -0.26430471680349        0.37376169621713
H            0.93905463836380        1.38284815792574        0.29889631523856
H            2.09094076371675        0.07017653622758        0.19022020123212
H           -0.12169035175911        0.76290774415282       -1.81223373934308
H            1.58457071080459        1.20585235678191       -2.01323938939824
H            0.61618205084988       -2.15466689071690       -0.78787058690413
H            0.35778889297241       -2.78314895005129       -2.42422722830103
H           -3.38280470241827        0.76743960889138       -3.15262598408750
H           -5.73698597743935        1.48834128814511       -3.07137048079847
H           -7.31352689194286        0.39009413362824       -1.52653046544986
H           -6.53778855958218       -1.43102746471343       -0.05661555426111
H           -4.17995917131666       -2.15663819042817       -0.12644947582006
H            1.24871007017254       -1.42056848987092       -4.36308922020907
H           -0.34621399048668       -0.85721845588709       -3.84165588153364
H            1.98595161454303        1.04418140957720       -4.39409433381556
H            0.69679279812483        0.60576062052785       -5.49673280683682
H            0.31271179514169        1.47572838155568       -4.02720105899568
H            2.74768731861980       -1.42353407291898       -1.16861582717555
H            2.58151991262524       -2.28757662973220       -2.69662366238344
H            3.61784159367778        0.58394670861296       -2.44928705640559
H            4.58091190580814       -0.87001843847565       -2.60273904167223
H            3.54840255574323       -0.38943367141813       -3.93166677364171
