47
 energy: -48.808142034525 gnorm: 0.000472894015 xtb: 6.7.1 (edcfbbe)
C            0.99454920001613       -0.31907900998610       -0.46077837108270
C            0.87540235576556       -1.46795340562613        0.53361938943012
C            1.22855553991889       -1.06491631372652        1.96620374495723
C            0.32707667177072        0.01111362427605        2.57527706676756
C           -1.15586998573492       -0.35611957447942        2.65652959442375
C           -1.46763325246325       -1.60982074177320        3.47631557662499
C           -0.99953803297329       -1.56251400309750        4.93236117161761
C           -1.56756774671792       -0.40470954969092        5.75572560967339
C           -3.09419601621821       -0.36903358874373        5.85220431161623
C           -3.73151078816367       -1.61822537988637        6.46452295052657
C           -3.25974534555563       -1.94913501524925        7.88299411833437
C           -3.49848386080855       -0.83702458387033        8.90919571026187
C           -4.95790425517542       -0.39148755840495        9.05292564037008
C           -5.92170760456204       -1.52963916883541        9.35835023164690
N           -5.49370827620356       -2.23398464963477       10.60691778224793
H            0.24931043994562        0.44835812600808       -0.26724777415193
H            0.84767416706235       -0.68277577397139       -1.47505852434104
H            1.98118191963160        0.13519333457519       -0.40034916610447
H           -0.13644019014760       -1.87602446755599        0.49931993882850
H            1.55669774806447       -2.26685932130875        0.23089394564404
H            1.20637590102046       -1.95688106025394        2.59626910707131
H            2.25458831569574       -0.68853211808652        1.97667567449615
H            0.69891524925223        0.24143725323360        3.57637224375150
H            0.41755467804045        0.92542596628443        1.98618813688321
H           -1.69690130406818        0.49572873945243        3.07543512859959
H           -1.54153720928145       -0.50916325708764        1.64712575604561
H           -2.54675853824406       -1.77983762926875        3.44570092374435
H           -0.99810025924530       -2.47224517796892        3.00012233440153
H           -1.25866095885725       -2.51224769126965        5.40733602489059
H            0.08869413714246       -1.48651030633530        4.95313685939108
H           -1.13577499553890       -0.45028995336771        6.75879110278910
H           -1.23918056285266        0.53729993880218        5.31502407515854
H           -3.38362770642387        0.51381539498477        6.42756661512681
H           -3.50848305901655       -0.24202378226530        4.85157808085100
H           -4.81737080332758       -1.49274635948379        6.45171751607462
H           -3.50498754565317       -2.47564860154981        5.83019431893574
H           -3.74077406756691       -2.88093088883661        8.19913687018662
H           -2.18848566303480       -2.14840982981927        7.85505165767232
H           -3.09241293394334       -1.14779643450126        9.87816235467416
H           -2.92013380119097        0.03604028260189        8.60977941746897
H           -5.02542476877431        0.36923466337441        9.83308522676080
H           -5.28202044675018        0.07389236337398        8.12329277290259
H           -6.93444429240459       -1.15085643024463        9.49765236397019
H           -5.92608253660283       -2.25370764151359        8.54373531597484
H           -5.51998934616495       -1.58445682812325       11.40335340370833
H           -6.08675484184465       -3.04566026418735       10.81330476126186
H           -4.51835532781647       -2.54158332696501       10.47362900991778
