28
 energy: -32.890693091318 gnorm: 0.000648804836 xtb: 6.7.1 (edcfbbe)
C            1.63341761566558       -0.16559845118635        0.50599340655633
C            0.83680053214421       -0.10879844760766       -0.79258592409622
C            0.88017469906967       -1.41389913341503       -1.59165787344436
C            0.31384101550175       -2.67868868752097       -0.94266774547440
N           -1.14568309133662       -2.72420625013969       -0.58476522501224
C           -1.41138607902304       -2.10886833985377        0.72196642443932
C           -1.56565968778809       -4.17863705482035       -0.59161365120928
O           -1.62108197918210       -4.49752477144351       -1.92393149943852
C           -2.29409594014789       -3.42252357175104       -2.56408825600693
C           -2.02091020322636       -2.19519664632750       -1.66369632960819
H            1.22791187001650       -0.88390882677130        1.21438586694940
H            1.62979590600002        0.81010941910043        0.98340373008374
H            2.66653310756160       -0.43339623504540        0.30104908907002
H           -0.19228898478006        0.20327171439027       -0.59947542167281
H            1.27677793151216        0.66367756432160       -1.42548649376691
H            0.43292573532044       -1.25262968007706       -2.57397729229925
H            1.93097041914252       -1.65156642071161       -1.77540688579069
H            0.47898926404723       -3.49768865715572       -1.64762312768614
H            0.86595997417489       -2.89418878043633       -0.02713464797705
H           -0.82476573790973       -2.61007144241566        1.49020160338938
H           -1.14766578671303       -1.05496786874993        0.70577672288530
H           -2.46602241848139       -2.20450123891991        0.97690958202363
H           -2.54499517926404       -4.24531143171956       -0.09331504054980
H           -0.83994281947950       -4.82000400024274       -0.08864955333766
H           -1.87883863933158       -3.33093008703922       -3.56857194209745
H           -3.36731857313900       -3.62944270593161       -2.63780390731047
H           -1.53775374938770       -1.38074549439082       -2.19553680061867
H           -2.94595920096674       -1.82282447413990       -1.22255880799936
