37
 energy: -97.750915744374 gnorm: 0.000700446634 xtb: 6.7.1 (edcfbbe)
C           -1.24734799143831       -0.43305809363707        1.14631430902769
N           -0.62886735966814        0.66671574045356        1.83529103855542
C           -0.63130005422728        1.93806655475278        1.45802180826203
N            0.05939425532351        2.66329774029338        2.33859521610476
C            0.29729415813336        4.09065782493916        2.28792519555326
C            1.78313739203983        4.46068362206443        2.21157954272743
C            2.38601686630843        4.41748902265723        0.80342997806864
F            1.65843192260191        5.18347596991168       -0.03936269541841
F            3.62201933109827        4.94161236107829        0.84109385844687
C            2.44513316665447        2.98700025385903        0.16625810237764
F            2.60014915936677        2.05652965637515        1.13574941400341
F            1.23614941193536        2.73315513660825       -0.37921851331439
C            3.58040792357630        2.80554674756123       -0.88912441743228
F            3.56871112815389        3.82950614707340       -1.74751918940264
F            4.74914449329843        2.81460517859685       -0.23236738960757
C            3.45091221235190        1.45771861058992       -1.67231889543803
F            3.53995318817380        0.44308661804965       -0.79237577069247
F            2.23160894769075        1.37102691298915       -2.23052369032275
C            4.51802228610357        1.30261715988779       -2.80110108171978
F            4.14401350310890        2.06014335465007       -3.84086268975152
F            5.71617184041230        1.73453238766229       -2.38862402546406
C            4.65048405531402       -0.18734791180635       -3.26349739958991
F            5.30882281287316       -0.89098132994264       -2.35163301614415
F            3.44872571502409       -0.73749954990505       -3.41883219922693
F            5.29814658709090       -0.25952918780695       -4.40888575225387
C            0.50386289254221        1.82153881464300        3.31668311107110
C            0.07484317122734        0.57084018431763        2.99777597543267
H           -1.76648018553349       -0.07299412481570        0.26123541284569
H           -1.95978841319834       -0.93268624825169        1.80334356716690
H           -0.48961742446102       -1.15681127638461        0.84379099390091
H           -1.10459725401225        2.32242897966237        0.57443568330277
H           -0.23628384532728        4.50537511279322        1.42894775157961
H           -0.11522776215771        4.53543306246926        3.19852790671302
H            1.89831448839503        5.49894278125452        2.53403224692697
H            2.39358373091253        3.83505620164680        2.86477383810397
H            1.07453321815170        2.15631181824432        4.15835223298492
H            0.22207243216379       -0.35883623253306        3.50914954262307
