51
 energy: -83.362964279690 gnorm: 0.000154604936 xtb: 6.7.1 (edcfbbe)
O            3.58450842480049       -2.07086987642892       -1.64675924150695
C            3.62332100362881       -1.23638014057127       -0.77412817209578
C            3.58405914356736       -1.55581992327647        0.66106745333618
C            3.81406703656179       -0.60940054733239        1.66480607999338
C            3.76562567394916       -0.98796368639362        2.99152971130685
C            3.48236497193943       -2.30885599237941        3.31486093720316
C            3.25362741433760       -3.26429929581754        2.33444138809482
C            3.30898953195063       -2.88372977859889        1.00958757025401
N            3.42695754173633       -2.69941882162425        4.71988945910752
O            3.65464751701486       -1.83926952049755        5.53503153110145
O            3.15718574053419       -3.85082408121429        4.95656206688067
C            3.72394526621057        0.25304624898017       -1.17261712389968
N            3.50172934691492        0.36235819888365       -2.58791196556875
C            4.33186710396538       -0.11528221934196       -3.52782362660040
C            5.72765957197953       -0.54416507854394       -3.33473739136713
N            3.71983784609314       -0.10403840428360       -4.71632027781300
C            2.43265314385080        0.37924988846679       -4.55460053151082
C            2.29263252515292        0.67009139094655       -3.18786658974872
C            1.09948982059028        1.16865708282497       -2.68363651217688
C            0.07063655902470        1.36414471850295       -3.58340058882541
C            0.21641353036232        1.08071664528943       -4.94269567762803
C            1.39848638585633        0.58835830298565       -5.45560228565889
N            4.30036169065270       -0.60271891216877       -5.86615013522752
C            4.11895578981237       -2.06225744809977       -5.99979093780862
C            2.66279398182251       -2.44330090179337       -6.00061280691055
C            1.93208278718756       -2.42065848495019       -7.18260838033567
C            0.57259760227668       -2.67788575814865       -7.16884412020331
C           -0.06945691494674       -2.94802081994074       -5.97176662567466
C            0.65289165166275       -2.97411446787238       -4.79090215441838
C            2.01368403760342       -2.72294269578125       -4.80314501765216
H            4.04407133219362        0.41602017425847        1.42438706546383
H            3.94306349360873       -0.27926695448283        3.78648159672026
H            3.03972359100197       -4.28207573737011        2.62373034780685
H            3.13760138324091       -3.60160164086219        0.22214533955075
H            2.97381444803855        0.84362329394541       -0.64707326784869
H            4.72009980345138        0.62334558884986       -0.91374227759703
H            5.76948986138451       -1.53809552039346       -2.88786973045407
H            6.22475965314498       -0.57568503107952       -4.30184229512712
H            6.25714844600688        0.14288409143466       -2.67693787902402
H            0.96892284047702        1.39704880609063       -1.63839811410614
H           -0.87240125704146        1.74706122630804       -3.22773188393889
H           -0.61609238021328        1.25036558623720       -5.60597141651424
H            1.50208827490083        0.36411689219265       -6.50472319720752
H            3.89972741604839       -0.12753482698708       -6.67228944145216
H            4.60870467173041       -2.34040005385205       -6.93288178176061
H            4.64395377325462       -2.53667058448532       -5.16870280924652
H            2.43286743048772       -2.21319224997159       -8.11811319690958
H            0.01515647648418       -2.66924378427057       -8.09273288747631
H           -1.12955933295581       -3.14792947217728       -5.96116666855865
H            0.15762529409607       -3.19532302748600       -3.85779158958156
H            2.57462905455567       -2.75834239767575       -3.87938194729018
