22
 energy: -27.098925729386 gnorm: 0.000432319942 xtb: 6.7.1 (edcfbbe)
C            1.06599848174156       -0.07137275967619        0.01117989522626
C            0.57507558035966        0.38031120739152        1.38316582144600
N            0.98379227705881        1.74318741703188        1.64967155329509
C            2.20197686202339        2.12803169726615        2.11927758213383
C            2.20467514318249        3.48901551400805        2.17183459037931
N            0.98808716309736        3.91381430147505        1.73371735415490
C            0.26954817549604        2.84049973563266        1.41705201017583
C            0.58390226009915        5.29458674300554        1.57366270754104
C            1.03460756166985        5.83544236199363        0.22000997290311
H            0.65026029530603        0.55369716105018       -0.77518735739387
H            0.75127660384089       -1.09552554495154       -0.16359607614835
H            2.15070084127614       -0.03224538516170       -0.04586274872323
H           -0.51414184049177        0.33012020117226        1.43155995013291
H            0.99285870755892       -0.26054377894131        2.16214269284770
H            2.96551985999929        1.42628983184993        2.38636180404446
H            2.97121601345491        4.16501966028941        2.49158783563384
H           -0.73650091171290        2.85694888131362        1.04411842934777
H           -0.50284798543280        5.34988220953582        1.66113026026344
H            1.03296207962410        5.87736372286684        2.38040597862019
H            0.58082282569828        5.27435222898364       -0.59346185911626
H            0.73227863907776        6.87413246472613        0.12974873290409
H            2.11620136707285        5.78400212913854        0.12178087033198
