56
 energy: -80.317405558475 gnorm: 0.000518512739 xtb: 6.7.1 (edcfbbe)
C            1.03962413617288       -0.84383411305000        0.89499825545024
C            1.04381066486037        0.39322138874487        0.27342629717512
C           -0.13833146883668        0.94093709126469       -0.19473404782496
C           -1.33238039059766        0.24950700602218       -0.04415761536252
C           -1.33315003071799       -0.98914850300711        0.58469336873860
C           -0.15027757016226       -1.53606368507250        1.04872272443665
C           -2.63459274244893        0.85407421399363       -0.52043299802227
N           -3.31707112039597        1.46850325627180        0.60292917653487
C           -4.21664673406973        0.86597454424168        1.37437072613991
N           -4.50671594809440        1.64007548005717        2.41793405384396
C           -3.76388886203279        2.78821864132592        2.31809336230970
C           -3.01146059769044        2.67961816839821        1.16888293892880
C           -2.03959557954873        3.63171233935727        0.63010331529496
C           -2.17534921804365        4.14312573059188       -0.65847877058647
C           -1.24571366975177        5.04376287569263       -1.14609772375492
C           -0.17926822732684        5.43971300735290       -0.35536613852525
C           -0.05041198674788        4.94536611741105        0.93264513609409
C           -0.97766741777238        4.04804532207840        1.42871888719113
C           -3.80411327619139        3.90359828459266        3.26206966029856
C           -3.62191079569614        3.69937885473872        4.62853849687044
C           -3.65498956737798        4.77413549455809        5.49863714180747
C           -3.86678276244055        6.05510362086066        5.01614830406323
C           -4.03291380704006        6.26444162004868        3.65641074111641
C           -3.99889862057379        5.19639742099436        2.77983506745891
C           -5.56135363074773        1.35831884142231        3.37447334177303
C           -6.90535319645679        1.45393543160482        2.69006648584243
C           -7.40066477292062        2.70140585359645        2.33016383822062
C           -8.61963191105741        2.80424899326946        1.68429371970559
C           -9.34960564986561        1.66310385817944        1.39404322674120
C           -8.85838263549118        0.41854111493831        1.74960427740097
C           -7.63627615535176        0.31285684342486        2.39173239354029
H            1.96238174466957       -1.27139503355125        1.25471075823823
H            1.96898751649471        0.93377068488116        0.14799283446136
H           -0.12807109965885        1.90274312456187       -0.68572933966462
H           -2.25871676933757       -1.53586279368583        0.69895783273768
H           -0.15724758868245       -2.50372844615796        1.52594287829807
H           -2.44057148298012        1.61448857079246       -1.27703074168910
H           -3.28943830990295        0.08578791045833       -0.93652509241001
H           -4.65909080000595       -0.09108270385163        1.18201382826002
H           -3.02149261869940        3.85976496242905       -1.26869238116099
H           -1.35641632883975        5.43878498286153       -2.14404243649879
H            0.54646894755265        6.13832904953505       -0.74105113580461
H            0.77424978888132        5.25947441627184        1.55289386083207
H           -0.87881425669954        3.65602048558639        2.42945283209076
H           -3.42110474947419        2.70719046459460        5.00728038644415
H           -3.51043372193784        4.61013537579837        6.55518208217314
H           -3.89542817695777        6.89003677294546        5.69838095865499
H           -4.19016885208266        7.26206130125292        3.27735048261178
H           -4.13266630189334        5.35498760314246        1.72037184120215
H           -5.40874371046850        0.35755211142038        3.78557176427864
H           -5.49569304424473        2.09352956750053        4.17788002292506
H           -6.83505965635560        3.59214387963624        2.56601775871228
H           -9.00270315145006        3.77581252111508        1.41347079610400
H          -10.30290819271934        1.74467788587189        0.89594036474016
H           -9.42682339088512       -0.47174141801363        1.53002181590425
H           -7.26045224990208       -0.65953638929462        2.67649038566136
