39
 energy: -43.918997479544 gnorm: 0.000313520845 xtb: 6.7.1 (edcfbbe)
C            0.62907117719983        0.08656852985100        0.47188718811033
C            0.49126191259409        1.28897579380277       -0.45409025394025
C            1.17471304034874        1.09169826966696       -1.80957670129607
C            0.64623275180418       -0.09007670914316       -2.62694946718986
C           -0.84972814920952       -0.03987750863148       -2.95142896763764
C           -1.39399057115632        1.19295770159052       -3.67880291556681
N           -1.03650816584417        1.39244175106034       -5.11951602250675
C           -1.05565452173247        0.11765685642942       -5.88056841945580
C           -0.90543219676691        0.43048358319402       -7.39046803398127
N           -0.51667885247441        1.81074605587362       -7.57327717739943
C            0.65601065154516        2.09506819743888       -6.77727870049906
C            0.30127891571240        2.02190088237795       -5.27181617847983
C           -1.59876861495990        2.67646825289694       -7.16237773833481
C           -2.04211336640169        2.31090759226828       -5.72541297830769
H            0.06947042516655       -0.77012747830465        0.10431363284287
H            0.24931545799153        0.33360034234382        1.45941368055827
H            1.67333188482841       -0.19864653579862        0.57168831499333
H           -0.56645442390102        1.52588550725690       -0.59084179533282
H            0.95362117727392        2.15372333502246        0.02531209135429
H            1.09354622401147        2.02043498303434       -2.38102651084484
H            2.23829032790029        0.91972389879792       -1.63430986124659
H            1.24195841112704       -0.19349217487865       -3.53766556982148
H            0.81324321907381       -1.00278134798481       -2.05427326676487
H           -1.12896744740312       -0.94940323952951       -3.48459954768492
H           -1.39116174898569       -0.06345042171696       -2.00377099787738
H           -2.48436942605375        1.12909570154413       -3.63842855733716
H           -1.08972541241032        2.09399315108380       -3.14330918228421
H           -1.99428380115069       -0.39796688346650       -5.67491819230306
H           -0.22928848353988       -0.50036889014611       -5.53096316309219
H           -0.14578014678359       -0.21162421110311       -7.83814562760539
H           -1.84121512251429        0.26201291741776       -7.92422708520278
H            1.43208359165218        1.37379243427307       -7.03596218891702
H            1.02484384549546        3.08885686096538       -7.03478878695851
H            1.03560837030517        1.43535309069449       -4.72477060204123
H            0.25446134447294        3.01893944871928       -4.83073327465048
H           -1.25671073301775        3.71009370123339       -7.22129937696954
H           -2.42963156431476        2.55929985416309       -7.85926862325119
H           -3.00593361550405        1.79951462356238       -5.73263458719581
H           -2.12667636437909        3.19896208414116       -5.09793455588170
