59
 energy: -88.632122548762 gnorm: 0.000341991028 xtb: 6.7.1 (edcfbbe)
Cl          -1.84769964847693       -0.94911788914874        0.69452699356729
C           -0.13045100852651       -0.81444001200491        0.61370601112052
C            0.67053522599972       -1.88033421281572        0.99649312543588
C            2.04696345468650       -1.75229386722100        0.92886830530496
C            2.62230314577864       -0.57438836354009        0.48494937926920
C            1.81780997509974        0.49135431429267        0.09902857049305
C            0.43764171432150        0.37057723366400        0.16721519768694
C            2.44897185989063        1.77513510663349       -0.39132829158060
N            3.32261285736526        2.35027477971901        0.60685188675874
C            4.68538995214771        2.36210032420985        0.55423226350071
C            5.12077155734249        2.99191210427007        1.67162391989603
N            4.01878512218606        3.35193606923459        2.39706246821169
C            2.92932887041152        2.95643599538858        1.73244386322949
C            1.51676845294807        3.08688210522420        2.13643253754953
C            4.10841206981827        4.18101997442317        3.57644883881701
C            4.55554754766612        5.61267967328366        3.23459494206503
C            3.43505590411745        6.63040801511989        2.89530716129414
C            2.28534433002437        6.46130547529501        3.87662079803471
C            2.54508106439948        6.57185347444849        5.24174522905053
C            1.53299350044740        6.41466373642351        6.16997084169706
C            0.24038935461473        6.14114926289404        5.75250091075029
C           -0.02972832117860        6.03424842916612        4.40046636522190
C            0.98472576419789        6.19391374820204        3.46888405082125
C            4.00852090877956        8.04586372069290        2.97086087105383
C            5.23474435069349        8.33718221161703        2.38089662860506
C            5.74461993579097        9.62304199292261        2.40536117904631
C            5.03326390479764       10.64579504618197        3.00846645725512
C            3.80232280813841       10.37282415441186        3.57747178541233
C            3.29122172556696        9.08604724024257        3.55409537793194
C            2.95539864497400        6.42544817344769        1.44555793390968
O            3.12359328034031        5.38897388141842        0.82812795883871
N            2.31877298124867        7.47866317091044        0.91228198515059
H            0.22013474321898       -2.79789698031994        1.33831279152599
H            2.67439618666197       -2.57994902200190        1.21979145411288
H            3.69743921582396       -0.48844512337670        0.42958081521534
H           -0.20210433618384        1.18387662823352       -0.13826104600795
H            3.05036658327305        1.57865653023443       -1.28218110782012
H            1.67747397404813        2.50455721861087       -0.64847661470428
H            5.23417582475141        1.94136837958677       -0.26267467752381
H            6.11616620543010        3.20342825061201        2.00320514515548
H            1.05843327300005        2.10092415144984        2.21658877522958
H            1.41513276354847        3.60743451890536        3.08306000643158
H            0.97372753397383        3.64979940441212        1.37818172061333
H            3.15160878525634        4.18744822547248        4.09821234911083
H            4.85573815998332        3.72953133436112        4.23444603637762
H            5.10651478941448        6.00467956832408        4.08945589089032
H            5.24347318116285        5.55639923670425        2.39109155933932
H            3.54309773474373        6.80454451889436        5.58063439281932
H            1.75340458529501        6.51147617687043        7.22177640241259
H           -0.55044802007164        6.02090587637982        6.47603211746775
H           -1.03467427671995        5.83138512962279        4.06275834561110
H            0.74818135331547        6.11720191002983        2.41834813202165
H            5.80197699064039        7.56388837454072        1.88635786174939
H            6.70001941621159        9.82522770561023        1.94609336960688
H            5.43161818227542       11.64793091052423        3.02725731034697
H            3.23123140883309       11.16220749220582        4.04149583714529
H            2.32674084985591        8.89695622162864        4.00193786475867
H            2.23601881921425        8.35084196316194        1.40763681965965
H            2.02162478738965        7.43697633013057       -0.04939709656549
