45
 energy: -78.512263667696 gnorm: 0.000385785490 xtb: 6.7.1 (edcfbbe)
C            1.40513198368132        1.84209886020801        0.86140978855152
O            0.53966770634400        2.20483076220452       -0.21960119705360
C            0.79387187269572        1.70309305514319       -1.40262356145531
O            1.69787405551004        0.97264561827658       -1.70890202986660
C           -0.25430761313304        2.17622997061208       -2.43462867019895
N            0.22485808887445        1.87631804432612       -3.75373480937676
C            0.35421299930827        0.64396976759425       -4.26712648065529
C           -0.20936378952080       -0.57609377669746       -3.66641270686540
N            1.03377716639574        0.70341083854273       -5.41995909703714
C            1.36111698301358        2.02620491088743       -5.67107513614396
C            0.86096337464456        2.77402679933646       -4.59249842433418
C            1.03320470726772        4.14982210587267       -4.52551262581631
C            1.70984528045612        4.74929606358691       -5.56885870847293
C            2.19308697231949        4.00967908062849       -6.64960307435123
C            2.02857197854513        2.64089211132219       -6.72337124760118
C            1.37188095104891       -0.41822870728813       -6.26215003857416
C            2.19019446202928       -1.50599230748646       -5.51844286375299
O            1.63161783324761       -2.51772540633057       -5.17825649938643
C            3.62457519441583       -1.26331970839902       -5.28109502312529
C            4.24010493116829       -0.02124675721816       -5.45771221007235
C            5.58997572406167        0.12181762676427       -5.20752964670268
C            6.32819365591168       -0.97821621978767       -4.79119637652936
C            5.73745395920205       -2.22108405033886       -4.60886797842235
C            4.38562253226503       -2.35657063186725       -4.84896967897924
N            7.75456007302108       -0.81717200998063       -4.53776363235895
O            8.20832863663731        0.29568192742082       -4.65915670255045
O            8.37106456969379       -1.80447016516116       -4.22284555761227
H            1.11233795714861        0.86824270847473        1.25517958064261
H            1.27727634013503        2.60810450113600        1.62137801526314
H            2.43994651088063        1.79960122739922        0.52038946301702
H           -1.19865064789295        1.66400406039095       -2.23148456592779
H           -0.41579732805363        3.24895546622079       -2.32987559647206
H            0.45033685811478       -0.93992483606689       -2.87640695654844
H           -1.18158164814558       -0.37181043285693       -3.22146217830823
H           -0.31240717833180       -1.37196589865718       -4.39942711658502
H            0.65871675720378        4.73382784508812       -3.70108344688741
H            1.86577065947876        5.81586066310516       -5.55288673489953
H            2.70646876789668        4.52157637089983       -7.44750186439618
H            2.39789330611419        2.08859730351424       -7.57280109795351
H            0.45535810935233       -0.90148125454116       -6.61868129305717
H            1.93277634243851       -0.05530276077203       -7.12333176286383
H            3.68137597661188        0.84373278885228       -5.77430237580625
H            6.08800169925638        1.07145689967726       -5.33254325039544
H            6.34144803696939       -3.05416887404642       -4.28242140897477
H            3.89378519171675       -3.30786357998552       -4.71516322109769
