53
 energy: -67.776241913405 gnorm: 0.000586225445 xtb: 6.7.1 (edcfbbe)
C            1.07812996276518        0.26198566814127        0.31335355976789
C            0.20798024913879       -0.60601891124217        1.22940525844755
C            0.30596917537634       -0.27294049058308        2.71716879743573
C           -0.48422958668367        0.97251756579835        3.11506934740074
C           -1.99503324368082        0.75118096486505        3.20635959976828
C           -2.40026365217777       -0.07575363443856        4.42076551411914
P            0.49768255170473        1.95569341595972       -0.09824997356077
C            1.05810890577478        2.26457582308820       -1.79181214999426
C            2.40820378718483        2.06386043324136       -2.07484190249181
C            2.88727999373540        2.31874089297692       -3.34554265094974
C            2.02694464020303        2.77969237015466       -4.33113992803433
C            0.68759405543638        2.98962478857394       -4.04645750663131
C            0.19759970866446        2.73653004946895       -2.77669217914978
C           -1.30250810029652        2.05270414318917       -0.09357572587961
C           -1.98845094021880        3.03553661466178        0.61061300774545
C           -3.37175565542186        3.05945168768557        0.56870393571277
C           -4.06408870163433        2.10802434626997       -0.16336655417997
C           -3.37760714370512        1.13013023642882       -0.86841751691867
C           -1.99600705226355        1.10055026705821       -0.84026288197859
C            1.26825580510507        3.26645561514494        0.87697501890099
C            2.07939553710206        3.02222383800802        1.97908910611219
C            2.66231563394194        4.08693087937035        2.64392991001876
C            2.43995609279291        5.38522266656526        2.21392651977155
C            1.63699293440514        5.62777311554296        1.10917106036358
C            1.05410180287763        4.57195479209735        0.43471866625653
H            1.16603305600653       -0.23223282351503       -0.66157650327047
H            2.08883944637882        0.35387307158286        0.72321091799541
H           -0.83482666783290       -0.55509455532314        0.91173317688185
H            0.54049047844547       -1.63643526510485        1.08624656067459
H           -0.06685285025787       -1.12453144138681        3.28577357355101
H            1.35701333009232       -0.14815854478676        2.98783950499503
H           -0.12902304866541        1.32670460944344        4.08451812027226
H           -0.28495685932422        1.76593316707693        2.38505388733342
H           -2.48239278794970        1.72675173320319        3.26947651341012
H           -2.36013701165424        0.26690367425895        2.29782469717473
H           -2.05020012899837        0.39514301335901        5.33610237676193
H           -3.48259729817268       -0.15816356430479        4.47158458925793
H           -1.98966903920464       -1.08072127199910        4.37245593263980
H            3.07695702920423        1.71704407403286       -1.29851902773039
H            3.93165122657365        2.16354514431318       -3.56743410110905
H            2.40326087173054        2.97701130061408       -5.32262335213065
H            0.02049969235272        3.35027077851276       -4.81407475260575
H           -0.84750927785123        2.90020637330393       -2.55411791019119
H           -1.44616697517526        3.77153254042972        1.18754482984773
H           -3.90968965730629        3.82166610098240        1.11060704947977
H           -5.14234728214753        2.12827378990051       -0.18703046455110
H           -3.91933840053121        0.39236048114905       -1.43988436266070
H           -1.45134155354103        0.35048280608419       -1.39871952971447
H            2.25096492818655        2.01395469487741        2.32417003745068
H            3.29221975225567        3.90091154518045        3.49989278973224
H            2.89622655252529        6.21043112347454        2.73779583634122
H            1.46928669881510        6.63874362712289        0.77191488507933
H            0.43728901590677        4.74898667948016       -0.43689560697779
