48
 energy: -84.482011708428 gnorm: 0.000475018471 xtb: 6.7.1 (edcfbbe)
O            1.55427658172308       -0.03724090486931       -0.40118250231862
N            2.72092467994489        0.27151675437680       -0.41246814357783
O            3.35979986625093        0.60082267322981       -1.38246242102431
C            3.42677745823497        0.23275467449511        0.86014235540384
C            4.77286052190665        0.56914317634333        0.90063323440006
C            5.44096440578392        0.52386870541866        2.10858769338079
C            4.77069210048291        0.14177876422230        3.26779772082879
C            3.42113226694638       -0.19109334806730        3.20986327770311
C            2.74139464510713       -0.14104810588679        2.00640004034208
C            5.51482770769240        0.10027601629702        4.58203811316023
N            6.75778903306209       -0.63547281690525        4.47050807577337
C            6.85563013576171       -1.93855215587346        4.15749326810754
N            5.81698848957824       -2.74216282870402        3.91862253137574
N            8.14388054618732       -2.31995076605569        4.13234517569467
C            8.92601949817468       -1.21270075506992        4.44859149596739
C            8.04522976732158       -0.13935168299608        4.65354051006682
C            8.51217928211581        1.12340221358543        4.97599306080073
C            9.88228027606355        1.27753015356982        5.09169969389056
C           10.75582344280076        0.21140717680814        4.89388278314458
C           10.29585880182000       -1.05229775288572        4.56852001946720
C            8.60819235501130       -3.66310551036878        3.85114561547718
C            8.09483715738167       -4.65476202199638        4.86901523825349
C            8.21772766268088       -4.37358704969837        6.22711452546700
C            7.75075770197255       -5.26933145128623        7.16889547264664
C            7.16513128393175       -6.45332721398182        6.74288485851632
C            7.04703618975344       -6.75570449236130        5.39460344338890
C            7.50803459476679       -5.84742754987340        4.45909812996411
N            6.66257682954209       -7.39522663179030        7.73214038958640
O            6.73419516456553       -7.06167236755180        8.89028620704382
O            6.20342180236307       -8.43163883834151        7.31834586826243
H            5.27033665753145        0.86713002748506       -0.00951987072068
H            6.48501668851429        0.79604413034488        2.15384244690078
H            2.89231344248337       -0.47012806354029        4.10943000687376
H            1.69226315184088       -0.38550209540777        1.94035179243705
H            5.76545543477618        1.11612804324171        4.89531781740916
H            4.89378461359077       -0.34947665133828        5.36375148938887
H            5.96098888825596       -3.71919195787362        3.72899193691688
H            4.88698732880876       -2.36496285172643        3.84973120422393
H            7.84779438213243        1.95743349163124        5.13203114375920
H           10.28270922413073        2.24655384891256        5.34176728747399
H           11.81646016828864        0.37428465450666        4.99582398345598
H           10.98384101706324       -1.86792354746614        4.41755225908696
H            8.30167207717759       -3.95246792802324        2.84037731688977
H            9.69996463552675       -3.64122211469443        3.87670185426861
H            8.68694709622765       -3.45547174356110        6.54786762423024
H            7.83646934088052       -5.07321655119572        8.22651299811841
H            6.59695183812620       -7.69103267712706        5.09900551926187
H            7.42788376574141       -6.07891407794476        3.40715745883173
