47
 energy: -73.680933135840 gnorm: 0.000805916515 xtb: 6.7.1 (edcfbbe)
C           -0.90085217729092       -0.99153939059070        0.10613100420241
C           -0.77356347801434       -0.56918095765680       -1.35508967023686
C            0.27283605830696       -1.29537080954747       -2.21087174419452
C            0.35935991420361       -2.80811913947183       -2.02286272466606
O           -0.46515254560307       -3.56318975254681       -1.61769595880985
O            1.60478489330726       -3.21661247597368       -2.38579852749715
C            2.35734086968920       -2.10915978405413       -2.85530356667223
C            1.75809607859885       -0.90017875825765       -2.12883717587966
C            2.24673876106938       -0.81598681285825       -0.66753288497168
C            3.72400977362392       -0.90410025181507       -0.53602378492848
C            4.68716953418102        0.04177328802500       -0.74601091490529
N            5.90083847199340       -0.53569477227622       -0.51151549474870
C            5.68795307924450       -1.79754728260281       -0.14278107990136
N            4.38226911169301       -2.05101237890661       -0.16202094910790
C            3.77444928361289       -3.30720444655423        0.19588161726239
C            7.16625062096341        0.13035493225427       -0.41216896414044
C            7.64903129297762        0.03374555960168        1.06485323112504
O            7.04938379938153       -0.70127150416743        1.81537533324628
C            8.81223234052444        0.82942646990139        1.44001118924844
C            9.56249308399598        1.58980303219355        0.53468208750529
C           10.65995562105133        2.30162988777479        0.96804680533452
C           11.02182706758771        2.26800137858472        2.31205127238391
C           10.29004640542705        1.51820341900795        3.22638372978565
C            9.19739293240582        0.80456338462062        2.78873909848191
Br          12.52743895696959        3.25305843917708        2.89489834001200
H           -0.99190761336811       -2.07068793680159        0.18428016889786
H           -1.80725053496839       -0.55304409660432        0.51506285433504
H           -0.07115450004858       -0.65262228688281        0.71969861974043
H           -1.73994254392105       -0.75272698552691       -1.82662470913131
H           -0.57925502671807        0.50380594383839       -1.41767683699988
H           -0.02872187402478       -1.15828650820738       -3.25870087788546
H            2.22491280215471       -2.01476056405300       -3.93943421729111
H            3.41169902126890       -2.29955614386576       -2.65244719698497
H            1.97884635944683        0.02969019964074       -2.65280281376101
H            1.90980750993469        0.13228467984190       -0.24805190822959
H            1.79214093869964       -1.62696033610444       -0.09978138517109
H            4.58548256837117        1.06613632527990       -1.04006377322448
H            6.45030299733048       -2.50546767000119        0.11527922591864
H            4.55047682275327       -4.05774768730653        0.32514857360772
H            3.22892480141997       -3.20628646960530        1.13555030523508
H            3.08255500491812       -3.64112838108857       -0.57880456929780
H            7.91013929282974       -0.35894146675492       -1.04735272712986
H            7.05147233050387        1.17051585252489       -0.71610246273504
H            9.30717633943649        1.62436942415011       -0.51233773251671
H           11.24233609950592        2.88427267735036        0.27179768027184
H           10.58120929337963        1.49677093026525        4.26433845573083
H            8.61538016141281        0.21389922595721        3.48043505869682
