84
 energy: -136.515537462146 gnorm: 0.000739909083 xtb: 6.7.1 (edcfbbe)
C            0.97173009625578       -1.71659261314805        1.42479186798375
C            0.51704678115368       -0.42803132031882        2.09930252745212
C            1.18417770116078        0.82023438751301        1.52177329839920
C            0.65613761442088        1.20740501436616        0.13658731811543
N           -0.63256443846262        1.85033658497433        0.21136752213575
C           -1.81863971753336        1.18893154993902        0.00420446115173
C           -2.09557712759429       -0.11853401158697       -0.36129578734141
C           -3.42562837838656       -0.49220733370212       -0.47543127057808
Cl          -3.80639788127812       -2.11311968889689       -0.90462205240984
C           -4.45898717111758        0.42610763508669       -0.24454234319544
C           -4.18538821244112        1.73757243519220        0.11398709653617
C           -2.85661972820479        2.10546453206891        0.24728476582790
N           -2.26514027653289        3.29387935552525        0.60291458640631
C           -0.90035870513191        3.12434535883279        0.60916249538348
C           -0.04548021059820        4.16687728411501        0.96710212224771
C            1.33475575148742        4.24677381820855        1.05790438797989
C            1.90980068918196        5.41984687926195        1.52987630221887
C            3.22667558181256        5.81607989812919        1.73956233127129
N            4.40828245874809        5.16438239763547        1.50618715923330
C            4.65157533792633        3.87720276964198        0.90552901480381
C            4.85046965801112        4.00934022837887       -0.61064508421534
C            5.52666762276690        2.78184787793766       -1.21332116000587
C            4.67799233980641        1.54027342345466       -1.11031995714710
O            3.57738123532888        1.49402833318886       -0.62080719398760
O            5.28703853393771        0.48257215612146       -1.63071487002778
C            5.45316166948017        6.00205785267032        1.83349690170688
C            4.89498686886577        7.19386743696165        2.32012711973115
N            3.52954610989268        7.05115695052518        2.26351167384070
C            2.63779351327385        8.09520970861176        2.71344468551645
C            2.45226542238123        9.19334645712881        1.65917682369442
C            1.57509489334917        8.78149928878623        0.47566258084734
C            0.09086283618774        8.74322137580771        0.82314143095448
C            5.69406916242570        8.24093737389605        2.74763982845859
C            7.06928921659038        8.07053225752378        2.67259869855334
C            7.62720869046955        6.88260960702357        2.17951307368092
C            6.82476129164528        5.83343117763215        1.75334214572340
Cl           9.33602500724617        6.71386694121210        2.09218680692817
Cl           8.09864427388750        9.34640751628665        3.18968518772112
C           -3.00181675556248        4.41987738683505        1.12272425430447
C           -3.04381877260851        4.43301223137834        2.65713663233362
C           -3.65412748721385        3.15749664152001        3.24090520383677
C           -2.67610953657711        1.99462532622176        3.18110511698764
O           -1.48608499936259        2.13373419943222        3.13094179502000
O           -3.21684751872650        0.77126465824056        3.20529055931210
Cl          -6.10003510265138       -0.07289843278748       -0.39250665636620
H            0.75182796795950       -1.71879490349368        0.35960468603502
H            0.47072508096246       -2.57106146251705        1.87164153051679
H            2.04456758099926       -1.84906319891750        1.54685624369088
H           -0.56702419239384       -0.32685544378403        2.03224819436313
H            0.76627719282334       -0.48554261102887        3.15961837879295
H            1.01184305399848        1.65260717381632        2.20490627223893
H            2.25865874810367        0.65406460740317        1.43540228759469
H            1.35734912730094        1.86758248269386       -0.37262359997269
H            0.54321658720205        0.31854927908204       -0.48268993161730
H           -1.32493717031907       -0.84787649791762       -0.53985068418733
H           -5.00126230679858        2.42340391911703        0.27050586256083
H           -0.56576921822583        5.06901471738395        1.25489488593370
H            1.94585320392794        3.41185746791789        0.77024970297950
H            1.19173565365101        6.18144739297413        1.79339162948548
H            5.56101444771067        3.47788381126502        1.36225355880119
H            3.83783374672430        3.19355035030300        1.13595583695117
H            3.88350902641862        4.16697856041631       -1.09099364654636
H            5.47524954362933        4.88263237249672       -0.80634759448572
H            5.73949442688582        2.94623990104552       -2.27128367081655
H            6.48183969890788        2.57691909703559       -0.72587077444534
H            4.73899725560424       -0.31637344014789       -1.57150439318444
H            1.67989225675052        7.66381659426611        3.00102422427619
H            3.08518944363310        8.52934187838660        3.61140219763421
H            2.00804929727606       10.06244294108202        2.14622142046987
H            3.43803353716753        9.48434247379089        1.29203866597868
H            1.72012337642637        9.50642275802628       -0.32653076041595
H            1.89712400499745        7.80876703396168        0.09826369450273
H           -0.24896714197044        9.72775141613365        1.13469827251691
H           -0.48948733481685        8.44201786048651       -0.04532239949373
H           -0.11935136898757        8.04499659266791        1.63061494400385
H            5.28921538257214        9.16403094036813        3.12558190531444
H            7.28248143087871        4.93483522110181        1.37700605634956
H           -2.56044383151812        5.34894884461386        0.75408076010809
H           -4.01543270487501        4.35604277872958        0.72313912445368
H           -2.03078458031514        4.53024272092412        3.05054806546078
H           -3.62638203643760        5.29864277280189        2.97234430322723
H           -3.87866656698020        3.32161825772173        4.29883156145884
H           -4.58699025258415        2.90050984523578        2.73547721553082
H           -4.18009070399886        0.76573258789725        3.28361457280245
