17
 energy: -27.977811182759 gnorm: 0.000496074505 xtb: 6.7.1 (edcfbbe)
N            0.89037246555791       -0.03022091117218       -0.00101971400067
N            0.20121322112716        0.07088632152125       -1.15855121165128
C           -0.70661592978789        0.99941233664268       -1.48634647081067
N           -1.21926815625078        0.64444733681075       -2.66639278187539
N           -0.66910923628358       -0.47881370438682       -3.08837199323016
C            0.19254333726113       -0.83242452161929       -2.18412785858186
C           -2.31193335126593        1.26021058026393       -3.37347807357247
C           -3.64944895490278        0.69143011040182       -2.90146116775500
Br          -3.88068432957233        0.97642629200777       -0.97560769742393
H            0.98554225898716        0.83067083838016        0.52158119171840
H            1.73278672589550       -0.58751461752807       -0.05805856823515
H           -0.97743996185836        1.85859887191436       -0.90548815153405
H            0.80652700522931       -1.70829383921698       -2.23887742828799
H           -2.27676601254197        2.33968728983858       -3.21047398933164
H           -2.18527190199838        1.03906352471801       -4.43638085494926
H           -4.47213341497295        1.19667159668838       -3.40280454133753
H           -3.70928376462318       -0.38211750526433       -3.07398068914136
