40
 energy: -48.808809035663 gnorm: 0.000809052401 xtb: 6.7.1 (edcfbbe)
O            1.93797496579424       -0.50208324339325        0.86370506022567
C            0.78191825227071        0.20724484734236        0.46401614877485
C            0.49920944172739        1.34496829215920        1.46835357785251
C            1.73173821852638        1.83134633727041        2.23202354425768
N            2.61362207706503        2.83624358171041        1.56724139118368
C            1.91461558919987        4.16672960461908        1.50308781439441
C            2.74981315027994        5.27522344323986        0.90980074393507
C            2.71668415762852        5.42356668781898       -0.47660612651442
C            3.46719875898342        6.39460555118033       -1.10581767190580
C            4.25899882241200        7.23592562274397       -0.34680074256524
C            4.28008197590766        7.13940786473210        1.03669479165486
C            3.51173949453363        6.15876249558563        1.68370798623985
C            3.53770557902653        6.14165325742510        3.18440554431266
C            5.11828953876457        8.09469149407866        1.82505555493657
C            3.84118125133290        2.94989848834637        2.37546641857495
C            2.99813088822622        2.38443940070786        0.22033950869783
H            1.92183980983061       -1.38362758162978        0.48011731938759
H            0.92515577352078        0.60103486263932       -0.55179151155217
H           -0.09045790181385       -0.45243400179677        0.43762964092849
H           -0.02434813102305        2.15368610806919        0.96130473246902
H           -0.17684493155543        0.95530219604018        2.23016200458219
H            1.40857182235736        2.26666099328258        3.17916090577532
H            2.33837148883978        0.94810579135908        2.44381966057811
H            1.59186496253063        4.41549349172541        2.51389363599558
H            1.02245264675824        4.03507537147981        0.88925795536936
H            2.08059681222904        4.78386713204779       -1.07024198265555
H            3.43114182639597        6.49712516627470       -2.17844833378139
H            4.85460750135503        7.99274564753877       -0.83328506008992
H            4.52555780955053        5.86412515185810        3.55035326890356
H            3.32974219381463        7.14227806373465        3.55683938141759
H            2.80781731308142        5.47333414151884        3.62755542829734
H            4.48956065469644        8.74985306602525        2.42729670698188
H            5.78979786223692        7.56737163049428        2.50041828487977
H            5.71365503310093        8.71520787586451        1.16168138400209
H            4.38992247366059        2.01049597295574        2.34639314913208
H            4.47087488111386        3.74129028006378        1.97384468934360
H            3.59620483313602        3.18076190715771        3.40970158098535
H            3.33610612008227        1.35064791297164        0.27001008219559
H            2.14933389176712        2.44573680137121       -0.45411646614398
H            3.79664309271232        3.01361829336615       -0.16756000106530
