35
 energy: -54.666342683041 gnorm: 0.000251256556 xtb: 6.7.1 (edcfbbe)
C           -0.21391160991836       -2.38393140697868        0.69908912707841
C            0.31113564719266       -3.79760511592046        0.70272569226207
O           -0.03743476857174       -4.62819255171556        1.50252547037858
N            1.19263354498527       -4.16280967621086       -0.29476434498033
C            1.82440990468113       -3.44247941773420       -1.29559383528735
C            2.08950425566543       -4.08453959118658       -2.51322556148299
C            2.73120039737319       -3.42026380744348       -3.53994642073265
C            3.12778533352702       -2.10682921443606       -3.37654635256984
C            2.89755861842396       -1.45480811331116       -2.15960146867546
C            2.25362978611941       -2.13058940854151       -1.11828964001171
C            3.38024009444384       -0.08293712566871       -2.04185412287188
O            4.03265390645017        0.49185649003188       -2.88194854545490
C            3.04183490121845        0.68611710591354       -0.72823719584625
N            3.37681489164413        2.06548278420311       -0.92370619126405
C            2.50985083257689        3.11617813836118       -0.99035579885988
C            3.21858658112145        4.19823479382764       -1.41075043093757
N            4.50389301009309        3.79049771154982       -1.61002918538807
C            4.57609260502670        2.49604345985485       -1.31817926216471
C            5.58004463317833        4.62679247356892       -2.06743564711051
H           -1.22060422641830       -2.40916232252362        1.10980173031332
H           -0.23539140561200       -1.96285226330160       -0.30215785124499
H            0.39032544710855       -1.76258661756144        1.35761794172520
H            1.31746335018257       -5.16864741488591       -0.33972801965850
H            1.78241997796449       -5.11149686332381       -2.64245050804390
H            2.92166311198040       -3.92890025253649       -4.47158796259604
H            3.62402031297475       -1.56991709517639       -4.16916901796989
H            2.12385648795549       -1.66502212699716       -0.15709060209590
H            1.98229352024277        0.60277625298312       -0.48818335981780
H            3.63924965352573        0.25366380330928        0.07953067133511
H            1.47352055685449        3.02835075601522       -0.73551918939735
H            2.90085186763445        5.20671246287107       -1.58066086332073
H            5.46368028071837        1.89708750577671       -1.37389738108818
H            6.47637246748896        4.02839208383176       -2.21300246408408
H            5.30942816649433        5.09677941795825       -3.01331587378959
H            5.78603786567337        5.41026514539775       -1.33673353636377
