17
 energy: -25.257194471818 gnorm: 0.000854375831 xtb: 6.7.1 (edcfbbe)
N            1.17289570732022       -0.07293052608387       -0.13444225520238
C            2.30928621917724       -0.09480842518606       -0.06241839870539
C            3.76611677892424       -0.10188800775754       -0.02040933259276
N            4.30058385938380        0.12252124119747       -1.34714098934077
C            4.83756041339344       -0.82259981322782       -2.16667321342546
C            5.15268346780922       -0.20315601800575       -3.33892910118203
N            4.79662389957434        1.10431163625274       -3.21866377322462
C            4.28062234947962        1.28174219146997       -2.00686748774567
C            4.96118084408053        2.12181183757006       -4.22349913859990
H            4.10142715814927        0.68467803809804        0.66494895136900
H            4.10860773403037       -1.07123002565803        0.35448705454711
H            4.96040555507628       -1.84617398753350       -1.87558872907926
H            5.59609314230907       -0.60592767718028       -4.22694987237209
H            3.90337989225646        2.20972485648849       -1.62029409731967
H            4.01784829362573        2.63960393402958       -4.39642651731455
H            5.70667226714951        2.85257357918682       -3.90649898903812
H            5.29072241826063        1.66403716633968       -5.15334411077345
