34
 energy: -39.752584952922 gnorm: 0.000734525855 xtb: 6.7.1 (edcfbbe)
C            0.75821186241577       -0.35479751060778       -0.48984144927109
C            0.55916897587635       -1.37969662319360        0.62036310255236
C            1.16565383198910       -0.94848506885596        1.95687786760701
C            0.60159701006686        0.35384932205055        2.53127762599726
C           -0.91461288049964        0.36162038232635        2.74347671441853
C           -1.44128836701122       -0.73351744171991        3.67087603024475
C           -0.94834731867654       -0.60928355431868        5.11780514503563
N           -1.46926744018545        0.58689547072234        5.73765013839065
C           -2.71608482422525        0.72134821389839        6.26641367850733
C           -2.84833160725149        2.01404681432182        6.67366761138886
N           -1.68034173790221        2.65101426402994        6.38242428835766
C           -0.86388521423188        1.76822259172728        5.81189848411667
C           -1.40151415348233        4.03868411314536        6.63716817271823
H            0.19577153913156        0.55579524039291       -0.29788369880619
H            0.41996483215531       -0.76301398072633       -1.43851822481093
H            1.81037143070601       -0.09774027712623       -0.58622822984261
H           -0.50586297725162       -1.58901981837670        0.73828443774291
H            1.03926035283148       -2.31436806282916        0.32444887584935
H            1.03818736130203       -1.75761861589191        2.67997734098942
H            2.24007098515749       -0.81025201934744        1.81937293020882
H            1.11689871539990        0.56102763226444        3.47363411644183
H            0.84672707020054        1.17159550919466        1.85283258888175
H           -1.21369234954434        1.34341066415456        3.12480307757356
H           -1.40184179671395        0.23938459916580        1.77665515736152
H           -2.53309804191844       -0.71247969914080        3.66554160492277
H           -1.12910248459344       -1.70729762969386        3.29738017662664
H           -1.28671024130872       -1.46955716528310        5.69854039511766
H            0.14106005611514       -0.57195601214101        5.14398935813652
H           -3.40867683205047       -0.09335567236504        6.32450490089272
H           -3.67430908777816        2.50984240689275        7.14132644644534
H            0.13358207508936        1.97540274555565        5.47548252616587
H           -0.33814796324648        4.23242176194233        6.52011771876542
H           -1.95521352261967        4.66922555309488        5.94025178849968
H           -1.70306725794744        4.29760186673566        7.65096930277454
