38
 energy: -55.411531824078 gnorm: 0.000421905524 xtb: 6.7.1 (edcfbbe)
C           -1.15770959487404        1.88963262175024       -3.99110130761896
C           -2.18884984051744        0.85636444655510       -3.55527509471374
C           -1.54522389770955       -0.49005082392488       -3.24044548974108
O           -0.72739858964304       -0.32618109721581       -2.08824753972555
C           -0.01569081743778       -1.36597070991898       -1.62558846652143
C           -0.00796630932611       -2.65047942891005       -2.17862910224088
C            0.76877316275343       -3.64805462304873       -1.61263164968972
C            1.54534725563209       -3.39461736586422       -0.50222136313715
C            1.55261383910319       -2.11164690759036        0.06423621786215
C            0.76932004046649       -1.10655703829890       -0.50075707925169
C            2.39047793807036       -1.90698984195724        1.23769655071920
O            3.02673990801214       -2.77236017616959        1.79485171579775
C            2.45059700704410       -0.46433646533857        1.82683903727475
N            3.50865128579547       -0.42648341064243        2.79109253348603
C            4.68053946704849        0.26420810412888        2.69270952794597
C            5.49174471817038       -0.17134598006476        3.69353913617657
N            4.81166164613475       -1.13380056434890        4.37871789757716
C            3.61814250177777       -1.27851935292288        3.81125679463688
C            5.31348248169685       -1.86000302874090        5.51344155347170
H           -0.41710747301904        2.03517235003605       -3.20899940385511
H           -1.64084933134219        2.84145582638038       -4.19243003120247
H           -0.64863717251654        1.56453023405003       -4.89561834412102
H           -2.71167512151093        1.20858727467671       -2.66518097218353
H           -2.92364892196311        0.70494365030990       -4.34668281643241
H           -2.31840302966546       -1.24287997952506       -3.04034290675345
H           -0.93222507870830       -0.82067735123164       -4.08852052661306
H           -0.60623601498488       -2.87770619169615       -3.04588191845598
H            0.76192096303772       -4.63436293418237       -2.04946652902495
H            2.15357536414469       -4.16495248462090       -0.05615074965591
H            0.72636663353590       -0.10838173588478       -0.09684643982831
H            2.64622137286482        0.26784146553865        1.04446786610672
H            1.48596745433285       -0.25194949793200        2.29605901540297
H            4.85218138508628        1.00517937973469        1.93907642210907
H            6.48602177001645        0.12796594286831        3.95506425425423
H            2.85600294219920       -1.95815243946527        4.13784201109047
H            5.41353670283023       -1.19635679329689        6.37383571723104
H            4.63163600947076       -2.66934258076346        5.76377189561330
H            6.29273934392716       -2.27901249251233        5.28224958403446
