23
 energy: -30.626850087030 gnorm: 0.000622024125 xtb: 6.7.1 (edcfbbe)
C            1.24081185706722        0.14657128442722        0.15217370880632
C            0.62349318447385        0.36956523354667       -1.22336365103227
C            0.97998830420636       -0.71668370981568       -2.24664908026609
C            0.42242918978573       -2.09651957022638       -1.83289123335011
C           -1.09306347701292       -2.23943918258931       -2.07362183164992
O           -1.46834072434337       -3.05111047214825       -2.88780248805809
O           -1.84002843761622       -1.46932944536839       -1.34268870133684
N            1.01051628879588       -3.18316892907039       -2.66763198358035
C            0.49548828095754       -0.32428638194459       -3.64196492693520
H            0.78869277380237       -0.69439991360310        0.67307288052239
H            1.08061467039348        1.02807145300082        0.76530696975705
H            2.31333330437462       -0.01773668891335        0.07779864266492
H           -0.45861490719981        0.45177448193177       -1.13038010802862
H            0.99142568755469        1.31616787287135       -1.61966452881730
H            2.07266536430045       -0.81075783567723       -2.25590147918719
H            0.63076929050411       -2.26330703947017       -0.77380154532745
H           -2.79317632033468       -1.58461704551710       -1.50960098512219
H            1.67641742752248       -2.81466683978667       -3.35573487252347
H            1.45675915609428       -3.92997122461696       -2.12874053942219
H            0.14578363546365       -3.56465650297474       -3.16900284195012
H            0.99956290737222        0.58380759458590       -3.95984521493526
H            0.69524839758376       -1.08882862767615       -4.39075988132265
H           -0.57281585374485       -0.12231851096561       -3.63736630890501
