59
 energy: -69.930592841298 gnorm: 0.000425074850 xtb: 6.7.1 (edcfbbe)
C            3.70440843742205       -1.74571963092141        0.66113303891349
C            2.55325103964176       -1.55485863639404        1.59648681887435
C            1.34370014942625       -2.00831677649089        1.27522065813179
C            0.09322898583605       -1.86087822612054        2.08957112860663
N           -0.72123474027601       -3.11611528921746        2.10845736503405
C           -1.22159978226120       -3.51746523166796        0.76412311016177
C           -1.29776410774945       -2.62466054130115       -0.28287674421923
C           -1.77820203653335       -2.98936303145730       -1.54019503525008
C           -2.22061877181633       -4.31055900652067       -1.71348005130007
C           -2.19587134128435       -5.22839756839637       -0.63432305961707
C           -1.69415273050894       -4.80979107693523        0.58168679578351
C           -2.71398016310311       -6.65237052650773       -0.80765968153512
C           -2.62526707311457       -7.47429257707677        0.48395699150451
C           -4.19178345877179       -6.61351683633089       -1.22338403871169
C           -1.87671530072452       -7.37680151306834       -1.87138063877347
O           -2.69037649116011       -4.78577692459402       -2.87669041242507
C           -1.75299681306695       -1.85770052072858       -2.58186514747142
C           -2.63664877025285       -0.70770591570412       -2.06703551538273
C           -0.29768705516684       -1.38163418764288       -2.74214704880084
C           -2.25553331772816       -2.18306986302437       -3.99755282874793
C           -1.89990457561028       -2.90167449559207        2.97082144589322
C            0.13271624497759       -4.17394425825295        2.68878985577251
C            2.89169949502665       -0.80159807156638        2.84330362340363
H            3.39673500403665       -2.21739249692712       -0.26767724772982
H            4.46700274245917       -2.36460898522793        1.13166865769210
H            4.16198261342710       -0.78503138035927        0.43313231324289
H            1.21185450866086       -2.51043910494481        0.32722086827844
H            0.33797604009477       -1.61887179918546        3.12535294668974
H           -0.53401524343093       -1.04874674805352        1.71309473030483
H           -0.97262863547188       -1.60944253193094       -0.15677370363116
H           -1.68211347470690       -5.51062952495716        1.39437651055690
H           -3.22680025949424       -7.03879263101041        1.27965074190685
H           -3.01669033909666       -8.46930102489328        0.28944094140301
H           -1.59623762384837       -7.59013782153378        0.81857372684067
H           -4.31907623775170       -6.13741556070389       -2.18856770797980
H           -4.57670167856283       -7.62708896882709       -1.29242597092829
H           -4.77873705687838       -6.07190455962550       -0.48410146375669
H           -1.97269548490088       -6.90129249259970       -2.84060567587979
H           -0.82656424783387       -7.38419818151535       -1.58597937058326
H           -2.21550984225910       -8.40503786873328       -1.96240310414247
H           -2.69303870738425       -4.10681376004479       -3.56102091265913
H           -2.27711004067280       -0.29314297365804       -1.13014452530810
H           -2.65471936165623        0.09755991402353       -2.79661286944057
H           -3.65672920720427       -1.05484925734524       -1.91612770970320
H            0.33514127944769       -2.20749777262454       -3.06092453270578
H           -0.24680880807319       -0.60269250789154       -3.49831992923560
H            0.11266884995328       -0.97343681152975       -1.82335588832116
H           -1.64136167378218       -2.93473370617817       -4.49339218007247
H           -3.31327992979857       -2.44591599779925       -4.01216572231883
H           -2.16450339131202       -1.27897901533556       -4.59854806330749
H           -2.51060382713053       -3.80202178147095        2.99481399685658
H           -1.58936790583635       -2.65421343653046        3.98506645048565
H           -2.50323725501952       -2.08789490569981        2.57155010896025
H            0.90857138101728       -4.44587791338861        1.97611262929764
H            0.60383571025422       -3.80456349414716        3.59798338891603
H           -0.44970880006700       -5.05499966669332        2.94090580391120
H            3.89504660573572       -1.05988493804345        3.17278311716082
H            2.88289804780650        0.26786225282275        2.63411834145413
H            2.20071842609780       -0.98667184198852        3.66118067380720
