28
 energy: -33.424617770299 gnorm: 0.000403679551 xtb: 6.7.1 (edcfbbe)
C            1.15216153302095        0.27266606934009        0.14552435781660
C            0.58343863049128       -0.41439423802510       -1.09036110913608
C            0.99432610659865       -1.88472473072367       -1.20423208525360
C            0.48662557490359       -2.78322136357297       -0.07608006670656
C           -1.04034725113477       -2.92357865601113       -0.03151742906830
N           -1.53219900860859       -3.60619767311406       -1.20540305777568
C           -1.56800004735725       -4.95545941390253       -1.37767199121940
C           -2.01668682289011       -5.19236429743634       -2.64195102266798
N           -2.24060741051582       -3.98335223356487       -3.22508803108254
C           -1.93797701199731       -3.03816831829929       -2.33678190730713
C           -2.74756931706346       -3.76711284922633       -4.55414642218236
H            0.72661043916605       -0.13096611729714        1.06060232950856
H            0.92918435906730        1.33547476641352        0.11543164652947
H            2.23166684598865        0.15378734090941        0.18352450899859
H           -0.50496878854461       -0.31395075798573       -1.08987670266363
H            0.95258062711787        0.10312270563242       -1.97755299460685
H            0.66182249452100       -2.28070414199520       -2.16896864579563
H            2.08404879619011       -1.93402425007006       -1.19975407579098
H            0.93041961572955       -3.77503354201944       -0.18289226935086
H            0.80971524211329       -2.38018659409302        0.88225596809160
H           -1.33122816884618       -3.50324464877814        0.84648621178969
H           -1.50885116269869       -1.94047134073579        0.02431600161388
H           -1.28362565173918       -5.64308529839631       -0.60763360323795
H           -2.18691726001811       -6.11963130535634       -3.14979976800589
H           -2.01934985758036       -1.98208059705421       -2.50713124184438
H           -3.81958465815745       -3.56404380174626       -4.52461060931714
H           -2.24465532334021       -2.91921591398652       -5.01641818297080
H           -2.57799252441626       -4.65567879890477       -5.15821980836547
