32
 energy: -49.018640509286 gnorm: 0.000534858218 xtb: 6.7.1 (edcfbbe)
C            1.00911568599523       -0.41472120920125        0.36780587622691
N            0.64417812167655        0.56287185769705        1.35609291114045
C           -0.60823435411987        0.75055841638827        1.85154903815481
C           -0.54538893286322        1.79751253165336        2.71900473937911
N            0.74434723801267        2.23336466102313        2.74054821154735
C            1.44552255960194        1.46837076387380        1.90645085784201
C            1.22116973217390        3.33919784656244        3.54525069037191
C            2.35529576471838        4.13710092010554        2.90264073730672
C            2.02313259491820        4.70797696122242        1.52944335213465
S            0.55830934149161        5.79605368282938        1.55038331288038
C           -0.55707843670973        4.95982346216953        0.47471890907335
S           -0.28390293176365        3.47327679021616       -0.16525768560023
N           -1.69907212484117        5.65324174291369        0.22572159814720
C           -2.05818936659689        6.91456505950725        0.68632139804705
N           -3.21225432285199        7.26973858286265        0.25382432306705
C           -3.67105400805991        6.24052221427238       -0.53020676616731
C           -2.76196333272746        5.23800820239311       -0.56328961782156
H            0.54377073893689       -0.16562549299768       -0.58714748502804
H            0.66695562465108       -1.40283455728868        0.67466453956681
H            2.08906473711732       -0.43145372266504        0.24139285222546
H           -1.44270371469498        0.14935299570062        1.55371744319064
H           -1.31769055076727        2.25195391778540        3.30511904472016
H            2.49459528977445        1.55879297319163        1.70489522309003
H            0.36914921880844        3.99923131455092        3.72636289029797
H            1.56141531242573        2.95177535634335        4.51126989022791
H            2.59048116379857        4.95625498629180        3.58395256680015
H            3.25447029392806        3.52518091295371        2.81193389741577
H            2.84960410099972        5.32428091766126        1.17820359273829
H            1.80984806845387        3.93035570985694        0.79192959127018
H           -1.42718550666414        7.50010820000822        1.32387395783783
H           -4.62485138150391        6.30532155976913       -1.01210871049214
H           -2.75891662331726        4.29186244235122       -1.06211117958545
