38
 energy: -43.736014444899 gnorm: 0.000729559730 xtb: 6.7.1 (edcfbbe)
C            3.17546119083366       -0.48103816350146       -1.48660095706606
C            2.20036169221194        0.68972020325168       -1.46482709646163
C            0.95350051504085        0.45311622869753       -2.32082101298026
C            0.13447827451916       -0.72980604371918       -1.79209337626849
N           -1.20659434801492       -0.83362972842048       -2.33395137022069
C           -2.32509130883807       -0.62861920219207       -1.68785405052333
S           -3.71950722209035       -1.19780768771901       -2.49632313243455
C           -2.69911095773136       -2.03854746011481       -3.75773558741168
C           -1.37999375670426       -1.27811298199995       -3.72450587583477
C           -1.42045889664555       -0.07079052555855       -4.67757515008333
C           -1.23813012572226       -0.49488142863843       -6.13023561954338
C           -2.54321118800805       -0.00252808308059       -0.34616100779787
C           -2.24998978528205       -1.00932814610633        0.77718278800788
C           -1.79990610360975        1.32039970307401       -0.14617394533820
H            2.76594548077121       -1.35358303103998       -0.98399957192417
H            4.09320309731446       -0.20538004341573       -0.97583848301532
H            3.42810340256831       -0.75163401968359       -2.50858613920652
H            1.90674460530086        0.90194477900796       -0.43467938222572
H            2.70467685757223        1.57700820660114       -1.84913734592995
H            0.33910967471789        1.35508312260743       -2.30544146101325
H            1.26865027107604        0.26275112439002       -3.34726137635925
H            0.64946234199331       -1.66245831270204       -2.03842614202439
H            0.06418770869961       -0.65921550759791       -0.70875052286790
H           -3.19554597518966       -1.97400786627156       -4.72167153300988
H           -2.60703964269019       -3.08541222433789       -3.46685645719122
H           -0.54377297103506       -1.92940742918954       -3.99177098806997
H           -2.37351072342999        0.44857579036467       -4.55680684208394
H           -0.62929235982676        0.62963428712086       -4.41707044497702
H           -2.01743199658066       -1.17886979411316       -6.45403129371716
H           -1.27349863006081        0.37999592549531       -6.77212074230735
H           -0.27622563955989       -0.98048387723063       -6.27183284143292
H           -3.61732837368184        0.21229366165319       -0.30342792734235
H           -1.19457379918749       -1.25558505014860        0.84588750487624
H           -2.55582299292414       -0.57373853011858        1.72373808956331
H           -2.81305821113413       -1.92690666138666        0.62778375339094
H           -1.94424450019269        1.97603508376967       -1.00091298795885
H           -2.20930844290642        1.81773512598461        0.72842299341417
H           -0.73687716156421        1.18448855626796        0.01975553536597
