20
 energy: -28.786382570798 gnorm: 0.000417890698 xtb: 6.7.1 (edcfbbe)
C           -2.36545190686426       -0.02489423701315       -0.02723775297908
N           -0.92258505689128        0.02054778971463        0.03546391934416
C           -0.23836273332630       -1.13249047769513        0.06345614212354
C            1.13497651445620       -1.13948709495965        0.12732719898066
C            1.83896827742546        0.06770438376568        0.16487046150262
C            1.10252059491518        1.25000383662720        0.13456702934885
C           -0.27540718140653        1.18924225630675        0.06966740770793
C            3.35624014061267       -0.00790821957090        0.23058343532163
O            3.87667816715204       -1.08982546844855        0.20169272771760
C            4.08900828746065        1.28838663592790        0.32765774013150
H           -2.68617676538306       -0.59918517126358       -0.89738215586180
H           -2.76458811328928       -0.50893601895607        0.86573117452813
H           -2.77966599465379        0.97832397358507       -0.09621805942021
H           -0.81090490886714       -2.04838440169132        0.03329143284742
H            1.68854098061369       -2.06764710798565        0.14719633568101
H            1.58256591624626        2.21503385379929        0.15864976162081
H           -0.87185742034062        2.08977699146093        0.04483353654518
H            3.90884689094098        1.89011635094036       -0.56188253631780
H            3.76168186996609        1.85113520839911        1.19981069527294
H            5.15477244123303        1.09098691705708        0.40879150590493
