20
 energy: -30.073759758178 gnorm: 0.000617801712 xtb: 6.7.1 (edcfbbe)
C            0.73129027413502       -0.08917361134704        0.21616867867287
C            0.28332884829899        0.99019374165421       -0.39310955510054
C           -1.14828045501385        1.16418923736498       -0.83268946766560
N           -1.69730039607248        2.39682557681915       -0.30298897066395
C           -2.31329111175648        2.54332071999559        0.86451419683912
N           -2.61105228261811        3.82919165131766        1.05636323556549
C           -2.16050080396008        4.53111863312203       -0.03336292081659
C           -1.58300300133405        3.62316846224368       -0.88347799131393
Cl          -2.35671749509829        6.20903669800809       -0.16666811770829
C           -3.28990261574047        4.40451890029717        2.18548489806538
H            0.09225165139762       -0.92589226032916        0.44471517255518
H            1.76560688603836       -0.18976671197076        0.49236662247186
H            0.93893655510289        1.81600765477206       -0.62835289307938
H           -1.19748665821097        1.21376658743426       -1.92397614441226
H           -1.75508829927803        0.32566955062609       -0.48661971665173
H           -2.53913492177070        1.74806034509108        1.54889275548585
H           -1.12013609462073        3.77803955620335       -1.83674870072529
H           -4.23965464267769        4.83745005626296        1.86847113645194
H           -3.47392595911182        3.63847674526094        2.93448341494172
H           -2.67922947770919        5.19726846717368        2.61809436708793
