64
 energy: -89.903423495984 gnorm: 0.000655919415 xtb: 6.7.1 (edcfbbe)
C            2.16723730242457        0.05130944358595        0.01358970477915
C            1.29729761221256       -0.11491459630528        1.25407998618793
C            1.51606079074583        0.98364180521185        2.29559759278507
C            1.16373035326087        2.39709041221678        1.82680043686986
C           -0.28758496983113        2.58724209948595        1.38058255031943
C           -1.33807205707136        2.25624071662537        2.44275414619495
C           -1.22505355090332        3.06593816164399        3.73574747710612
C           -1.30417586086468        4.58520550921007        3.56155717325352
C           -2.56943286786887        5.08739839462493        2.86074033225565
C           -3.87525174403129        4.76296930069160        3.58673662079590
C           -4.07366414178990        5.54793330390575        4.88857310618711
N           -4.31526326899943        6.95001981166354        4.62665679922837
C           -5.49111083939538        7.43470559943128        4.09199671653433
C           -6.68555771274083        6.80863215959712        3.76088928219091
C           -7.69514570552273        7.60025865580298        3.24270770805791
Cl          -9.19056331255515        6.88039380394243        2.81836042300949
C           -7.51482409731135        8.99045796011288        3.05677321245859
C           -6.32764803919722        9.61526095793242        3.39603272876730
C           -5.31757236141240        8.81825264988651        3.91905111465228
N           -4.04464638786951        9.11450016607933        4.36542417102428
C           -3.46920929827223        7.97625045935399        4.78169434350165
C           -2.11549882179963        7.86740824512871        5.36416185223295
C           -3.45274395624012       10.43531074469890        4.36846745755951
C           -2.48741015361218       10.64343183665369        3.19576937322484
C           -3.20108617525809       10.78481371670045        1.84527654284996
C           -4.02314419034487       12.05719981571440        1.79041086154066
O           -4.94381156518035       12.30071878618969        2.53016848776111
O           -3.60627813324228       12.87833678469825        0.84425879417891
Cl          -8.79336104877030        9.92247070960546        2.40255895467764
H            1.90242657714746        0.95041878058398       -0.53768549231604
H            2.04030822301999       -0.80025464222204       -0.65063132391085
H            3.21742911652992        0.11384875116244        0.29226292257636
H            0.24624194989219       -0.14820654254077        0.96095832740361
H            1.53269442998176       -1.07376354717144        1.72209995149943
H            0.93471457358279        0.74097860438259        3.18765454673814
H            2.56914212475309        0.97986515939382        2.58709550997427
H            1.38962555895924        3.09258369437390        2.63891258474512
H            1.81175293516793        2.66612040449043        0.99087172573142
H           -0.41275001336553        3.62214591121818        1.05185056242504
H           -0.47789732059289        1.95563911341104        0.51147822333276
H           -2.32932529255087        2.39969250360304        2.00562946206786
H           -1.25879207811005        1.19985497069698        2.70269739975894
H           -2.00904776328704        2.73410692393213        4.42099515420586
H           -0.27225709482426        2.83696285148916        4.21523336477568
H           -1.21377414275071        5.03866568879887        4.55256598293427
H           -0.44392462538149        4.91727544336291        2.97844614973606
H           -2.49628296711141        6.16936043667537        2.71095793427017
H           -2.61599032145844        4.63689926372926        1.86968810967067
H           -4.71216001654022        4.97190732953354        2.91849366705255
H           -3.90156487893008        3.70147392465381        3.82742863115504
H           -4.94236066245943        5.15774760715109        5.42431427980701
H           -3.19752693083779        5.44704686485918        5.52759306303881
H           -6.84426544389868        5.75278002066285        3.89994113226992
H           -6.20653590359092       10.67631619252794        3.24122345858569
H           -1.44008569435152        7.34878051109966        4.68335964096591
H           -1.69986681865187        8.84770676241804        5.57386926878373
H           -2.14815968528758        7.30116747219059        6.29427921888305
H           -4.26272335990085       11.16320034900705        4.30299580986933
H           -2.92950862369862       10.58836353409253        5.31483823065992
H           -1.91045577372435       11.54839052598816        3.38965537599864
H           -1.78701014266776        9.80855183342706        3.13633149525857
H           -2.46735369852816       10.81945005121182        1.04134669337789
H           -3.87042288241524        9.93789150305790        1.68023758008216
H           -4.13238915251767       13.69492433477922        0.80703340845550
