35
 energy: -59.399804349287 gnorm: 0.000558924125 xtb: 6.7.1 (edcfbbe)
C            1.28770349048385        0.53612511410341        1.20862897009809
C            0.79125696274077       -0.60416395376704        0.42366550210446
N            1.42593235129636       -1.74462622220313        0.13103877860432
C            2.79559420669852       -2.07946783320479        0.46754615695484
C            3.55246764895042       -2.77374828567912       -0.67046023112706
C            3.50532816201099       -2.04835523808502       -2.01930248618189
C            3.91090784097230       -0.58589542656492       -1.93055537561389
F            4.94616462848358       -0.38015459341776       -1.11168299914270
F            4.21904055108480       -0.07662379724697       -3.11832817194850
F            2.89896541528422        0.17591190090527       -1.44186053519847
C            0.57247553731554       -2.55380627257233       -0.57240492467886
C           -0.59424753595999       -1.88188783770381       -0.72047688309640
N           -0.44076227985928       -0.66956289335688       -0.10653727676979
C           -1.47008192154222        0.35515392028643        0.01076070229515
N           -2.13406470646789        0.27248151566381        1.27159256242023
C           -3.37031734393515       -0.21069018431566        1.55513919765155
C           -3.53932545700630       -0.09526484241439        2.90942206206153
C           -2.33764469430464        0.46639538124168        3.37538710732539
N           -1.50243576820843        0.67934540890391        2.38370944474715
H            2.17107807577453        0.27693197020214        1.78163592815975
H            0.49947345155704        0.86222273340453        1.89656259341278
H            1.53761692302125        1.36992983190947        0.55196928565390
H            3.31324821427765       -1.15901661433154        0.73995370388258
H            2.79512025419954       -2.74160862902214        1.33952018085190
H            4.59155768895653       -2.85598040331827       -0.34751266523855
H            3.17818612191650       -3.78680466477534       -0.81811181046780
H            4.19716503269363       -2.53386601983119       -2.70984237016735
H            2.50811253203933       -2.07712741773617       -2.46408693375435
H            0.84332750437071       -3.53522191002375       -0.90073598129561
H           -1.50029886300680       -2.16907248208066       -1.21260211179802
H           -0.99178858268013        1.33635936354298       -0.08794268999675
H           -2.19374186762686        0.21084787959549       -0.79557121699935
H           -4.02356136557277       -0.57493363799802        0.78869889221394
H           -4.39663208790507       -0.36599568724372        3.48803861970556
H           -2.06177012007242        0.71789982710168        4.37919497533176
