47
 energy: -68.626508019689 gnorm: 0.000367081554 xtb: 6.7.1 (edcfbbe)
C            3.24052687249458        1.51139616019799       -0.21921658846759
C            1.96115824484801        0.69768733021118       -0.08019182298876
C            1.02849856618097        1.23409661971521        1.02677250992050
C            0.49350111676136        2.57312233949761        0.68099718876944
N            0.98353334593969        3.74787338975358        1.11193396505902
C            1.95698300586246        3.96860139022907        2.15707276266921
C            1.25252182824486        4.22032782574062        3.50431632198059
C            0.29911302561899        3.16696115771944        3.75124725166536
N           -0.45890216851384        2.31861614770744        3.85139685222934
C            0.28582549232423        4.76881440535978        0.49217281997332
C           -0.65004548311209        4.15818611985481       -0.35747504537887
N           -0.49250077749215        2.79229455838963       -0.19700718227885
C           -1.28106356924088        1.81291314404212       -0.90101798894030
C           -2.81044387076274        2.08852332397050       -0.82599995094298
O           -3.38213704920969        2.37812262731294       -1.84922896435913
C           -3.48371725601093        1.95168260295682        0.46703327681308
C           -2.82979298239994        1.66720132069837        1.66878353122796
C           -3.54965884157615        1.54339024869284        2.84065419409586
C           -4.92882065945130        1.69171565894892        2.83417328552074
C           -5.59125679352561        1.97403878608871        1.64842480140086
C           -4.87665067947545        2.10689984874473        0.47603825470338
C           -1.48830815142465        4.91273418568337       -1.16905546310884
C           -1.36841578522206        6.28513406181426       -1.08242821804571
C           -0.44731129338874        6.89273408124344       -0.22644392242651
C            0.39810343732228        6.15036862831765        0.57310504439696
H            3.03060352847247        2.54390342973702       -0.49250408917371
H            3.86399581699049        1.08092489873009       -0.99761237206188
H            3.81183216679527        1.49876937791369        0.70625890592462
H            1.43213076135689        0.68389343585250       -1.03408195571835
H            2.21599338524438       -0.33125274567730        0.17342722385339
H            0.20476374114038        0.53154435532786        1.16602957914787
H            1.57111713641655        1.27349601814971        1.97048837964409
H            2.61398009973451        3.10116614034321        2.22908041839212
H            2.56185499443558        4.83707413824654        1.88737906207476
H            1.98775111437271        4.24686368576762        4.31112320062636
H            0.71528754150090        5.17265083592977        3.49029259027348
H           -1.02026965441527        1.84064341546876       -1.96516315590133
H           -1.08149521284312        0.81416943623857       -0.51244785303694
H           -1.76026058613602        1.54328882998308        1.71410727536699
H           -3.02742367130462        1.32976543243313        3.75990772840525
H           -5.48569121883636        1.58496780577770        3.75229338127786
H           -6.66404640768972        2.08779293503847        1.64047557023414
H           -5.37429226097049        2.32353685656521       -0.45694895614358
H           -2.19452031847731        4.45691081444772       -1.84192447469555
H           -1.99941717586709        6.90663049276696       -1.69705040535560
H           -0.39048677216170        7.96904901585429       -0.19566319293315
H            1.11570341744458        6.63090543222836        1.21813622631794
