42
 energy: -62.546984173243 gnorm: 0.000388666848 xtb: 6.7.1 (edcfbbe)
N            0.99492123892020        0.08714787461936        0.28488813341637
C            0.21060809557051        1.15134146502481        0.58485067154223
C            0.32525057400730        2.47191872474067        0.23425382445705
N           -0.68812690755150        3.15435882816029        0.86000323638882
C           -1.42186506968139        2.29463058759697        1.57097328587184
N           -0.88395742747221        1.06043090694339        1.41652675089054
C           -1.39732685263789       -0.14872295066194        1.96235283078155
C           -2.71908247388070       -0.50291569152911        1.72421725052862
C           -3.21065924963627       -1.67984178104817        2.25992119210107
C           -2.38933390348818       -2.49764523220331        3.01977434271794
C           -1.07057128076391       -2.14075708522257        3.24813405376604
C           -0.56659720650032       -0.96375666652354        2.72115671107707
C           -2.60961779490576        2.60523686912594        2.35213283485235
C           -2.78304723294446        2.05571456191149        3.62329548181973
C           -3.91839109816384        2.35153752714721        4.35330527734897
C           -4.88898198859613        3.18879381387333        3.82648125736127
C           -4.72156125747690        3.73591674904864        2.56403479380242
C           -3.58876779760462        3.45057291472611        1.82660394921718
C           -0.84912301664469        4.56305861942070        0.79833564431800
C           -1.01393850811380        5.29365504998123        1.96829418317769
C           -1.15609811672063        6.66737972197532        1.89365577565921
C           -1.12860869646664        7.30660378072060        0.66446888862274
C           -0.95414412609838        6.57255715021485       -0.49717647921419
C           -0.81163780802597        5.19734244997592       -0.43625567536485
H            0.60166036314188       -0.83339427644955        0.40312546570286
H            1.63795208568148        0.19661401589797       -0.48072795134735
H            1.05675018891219        2.96528710974179       -0.36871154299131
H           -3.35099672997902        0.13666869481135        1.12726675873273
H           -4.23663272757098       -1.95852980131767        2.07954004751649
H           -2.77803651245431       -3.41396999438353        3.43468923768212
H           -0.43077395499111       -2.77505756402417        3.84103386801758
H            0.45476313415571       -0.66899422415270        2.90999037308711
H           -2.02107426090672        1.41755724867462        4.04431322094641
H           -4.04357593368205        1.92847229586014        5.33756823487115
H           -5.77501681054787        3.41433029277979        4.39863622234576
H           -5.47736774436051        4.38440168823786        2.14978585428134
H           -3.46847192066673        3.86631745875076        0.83748347699805
H           -1.02039596437576        4.79179469548512        2.92355107243696
H           -1.28134914290011        7.23857483703561        2.79976034204622
H           -1.23958151433083        8.37801897398288        0.61243673358253
H           -0.93039891520786        7.06860214380824       -1.45465345311632
H           -0.68702573504341        4.61837821724300       -1.33883617593387
