28
 energy: -39.847603372683 gnorm: 0.000462879414 xtb: 6.7.1 (edcfbbe)
C            0.84197297732446       -0.04991506305144       -0.06843770693404
C            0.03548892290996       -0.82164656288720       -0.76968140859520
C           -1.46604345241104       -0.70348667677202       -0.73555485335996
N           -2.00148765300892       -0.55639399146897       -2.07290234525675
C           -2.33875948959699        0.58429563388396       -2.66355733058653
N           -2.73835719836368        0.37990403805353       -3.91356047127205
C           -2.65295091577710       -0.97259361158210       -4.16989486086860
C           -2.17663942368117       -1.57357423602872       -2.98868126693292
C           -1.97914393069489       -2.94743180247728       -2.90892489147531
C           -2.26964305945456       -3.68597032785653       -4.03701825087999
C           -2.74072709743500       -3.08767881101006       -5.21014698286797
C           -2.94186004429210       -1.72613530124264       -5.30156343081303
C           -3.19068890783523        1.37805265105619       -4.86526545432091
C           -3.28754941693170        2.69703853334891       -4.27271033569290
C           -3.37258151958660        3.78891105723124       -3.79116910230660
H            0.47190753522773        0.72631583417756        0.58080012016464
H            1.90946245965207       -0.17631166364046       -0.09982346366659
H            0.42203500088010       -1.60150707928653       -1.41074028228110
H           -1.90155550205381       -1.60635051684601       -0.29586270160793
H           -1.76602664238804        0.16003407906556       -0.13921099852736
H           -2.30324787017325        1.55125713102105       -2.19733550121564
H           -1.61559057481977       -3.41730801380026       -2.00990714928896
H           -2.13025877006069       -4.75493933377094       -4.01707181660730
H           -2.95232226238139       -3.71031038474985       -6.06455906636784
H           -3.30527717251602       -1.27245352745380       -6.20894920939703
H           -2.48867815993471        1.40755100574582       -5.70765468821169
H           -4.17398518448204        1.07738643181503       -5.24585870234251
H           -3.45831264810874        4.75487050852755       -3.38842784848576
