23
 energy: -31.958143405825 gnorm: 0.000457661208 xtb: 6.7.1 (edcfbbe)
C            0.75050884712400       -0.55828268965187       -0.10202151076299
C            0.39356485111990        0.37525400981413       -1.24878439740402
N            1.02145709687769        0.04390486847085       -2.51954811293727
C            0.92115546404257        0.95687202610017       -3.49891481699463
C            1.32219958537494        0.67349690936930       -4.78849960442737
C            1.83773156787801       -0.58038803729373       -5.08058237081520
C            1.93981861599887       -1.51015998629162       -4.05261274191585
C            1.50943665608424       -1.17511806638248       -2.78739226737919
C           -1.14800106268713        0.46525598420678       -1.53755567515606
O           -1.52054409307419        0.53509962948125       -2.67384269189867
C           -2.02232751427352        0.49355261157604       -0.33670043342436
H            0.29270562618655       -1.53834325581687       -0.21150535059024
H            0.40218163963680       -0.12915714884189        0.83249798617039
H            1.82992175539642       -0.66967075406233       -0.02197029041212
H            0.69808552880605        1.39655948842051       -0.98589586488008
H            0.53571059454311        1.93075343118831       -3.23879668373129
H            1.22477194372439        1.42928024877649       -5.55082912707918
H            2.15334665518962       -0.82889602016583       -6.08146951281675
H            2.33788099002807       -2.49597898209475       -4.23202278744007
H            1.55819513406099       -1.88788639097026       -1.98073579129667
H           -2.07300922383403       -0.50103795662656        0.10451132111464
H           -1.63864949144605        1.17656355814449        0.41687140618811
H           -3.02690116675622        0.78857652265288       -0.63017068211143
