19
 energy: -20.144195041012 gnorm: 0.000619481867 xtb: 6.7.1 (edcfbbe)
C            0.93649437838201       -0.06024834659592       -0.12288405910511
C            0.47155966745893       -1.46070406100491        0.21999213771838
S            1.00343017055338       -1.93984947650962        1.91090247347708
C            0.45943897367634       -3.66669743966805        1.93366344192901
C            2.82703994489661       -2.11295697283700        1.75933334311183
C            3.33445056181482       -2.94415778007708        0.60303208018597
H            0.57945993997640        0.66079038820519        0.60821443688360
H            0.53289000663939        0.21931802898336       -1.09350591473077
H            2.01985612143190        0.00503518419479       -0.18247557992481
H           -0.61704395037090       -1.50665987371332        0.24906185321106
H            0.84465119366198       -2.20159881476128       -0.48459722400551
H            0.71954271410280       -4.17232822176837        1.00963337998650
H            0.92362349177251       -4.15982360720693        2.78313732394505
H           -0.61876142518423       -3.67083994382462        2.06815729518173
H            3.19747287875436       -1.08942562737112        1.70620274920087
H            3.13512913295581       -2.53647786268834        2.71550672967331
H            3.07449456093291       -2.51369434575854       -0.36034073061139
H            4.42073920841221       -2.97157825688836        0.66165694435838
H            2.98293243013278       -3.97143297070988        0.64882931951483
