21
 energy: -25.763110792617 gnorm: 0.000180685767 xtb: 6.7.1 (edcfbbe)
C            0.52795380747516        0.17129736849562        0.21956673144856
C            0.69449989506200        1.68353873374788        0.17164561393858
C            1.60326308690821        2.14791102520636       -0.97701793107235
N            0.99651932876877        1.85105209168119       -2.26216350921057
C            1.28406012907477        0.70566487369806       -2.88906843392280
C            0.66228022639828        0.36352775426751       -4.07332288846838
C           -0.27774383727645        1.22637900419277       -4.62056869026039
C           -0.56198096118349        2.41217325663363       -3.95378283982613
C            0.09118787733305        2.69392977060513       -2.77243876846327
H            0.02602329546497       -0.20912222670919       -0.66855097265618
H           -0.07619135373718       -0.10037094150772        1.08010753220176
H            1.49123137908330       -0.32267247138814        0.32080377210092
H           -0.28214934881668        2.16260451314584        0.08091049284122
H            1.14809981054196        2.02631815410736        1.10151593048631
H            1.76813100843303        3.22441770460180       -0.90399450965231
H            2.56642912415910        1.63918675295543       -0.91144284136332
H            2.02573124910405        0.06449864245994       -2.43621313216503
H            0.91416517748614       -0.56613259495949       -4.55793863973602
H           -0.77521261314232        0.98318593363899       -5.54619124054956
H           -1.28200395923376        3.11239995028101       -4.34587643681418
H           -0.10211332190361        3.60337270484604       -2.22233923885678
