27
 energy: -30.749325814012 gnorm: 0.000598914205 xtb: 6.7.1 (edcfbbe)
C            1.29600895511085       -0.15946214497142        0.73464744607159
C            0.38465248222457        1.05663288870523        0.88126172367010
C            1.01301388157241        2.35144384556162        0.34601155435605
N            0.52963618221993        2.81417822667700       -0.98975636079606
C           -0.93441812986936        3.11390887903618       -1.00311260364925
C           -1.49281240776996        3.81017704811130        0.24354442043550
O           -0.74748151173208        4.97080034870895        0.53153107790476
C            1.27712961456099        4.04228852992292       -1.33834721458099
C            0.80755357643809        1.79772220511651       -2.02075128974053
H            1.51576990118584       -0.39253976694726       -0.30366660202616
H            0.81862653251652       -1.02874401124047        1.17781523017959
H            2.23537232378058        0.00480433248146        1.25618828962602
H           -0.57388088863694        0.85440550872034        0.40351755917911
H            0.18240416931647        1.19309595488294        1.94448060113464
H            0.84562469200531        3.17742038323606        1.03754201390115
H            2.09213149572807        2.20578042507087        0.26400048966847
H           -1.12166492516870        3.74947814108473       -1.87048235502397
H           -1.48930837675546        2.18411856773415       -1.13414587347641
H           -2.53671711387729        4.05696842269273        0.01570633910045
H           -1.48895361313882        3.12862445373136        1.10453937212892
H           -1.24359252681978        5.54544351659708        1.12305493856527
H            2.34784354929543        3.85546517212528       -1.29148925450821
H            1.02339301110665        4.35940522093728       -2.34787659523890
H            1.01719848538702        4.83818824466677       -0.64369778211664
H            1.87825494663747        1.60851343462358       -2.07191554870764
H            0.29533767823909        0.86661793142940       -1.79147047618139
H            0.46922801644509        2.15020424130492       -2.99378909987438
