18
 energy: -26.810763654230 gnorm: 0.000704898431 xtb: 6.7.1 (edcfbbe)
F            0.81005171477139       -0.32201174835157       -1.00177371609171
C            1.97904639192692       -0.07009595772524       -0.34200127399188
C            3.07283922881951        0.21820295936220       -1.37885009838020
N            2.68600071446995        1.35931521516924       -2.19346203958381
C            1.85550842961651        1.16914308049613       -3.22591154624529
C            1.39400912238217        2.23457914343264       -3.97153561901653
C            1.80168553672184        3.52112575111107       -3.64408839847001
C            2.66638774599674        3.69497887419621       -2.56950514687483
C            3.08813702028581        2.59167946092301       -1.85851057601540
H            1.80056485521370        0.78642123648306        0.31635027975762
H            2.22918185211180       -0.95745907420413        0.24558979817241
H            4.01346604818720        0.42088214513731       -0.86590613290425
H            3.19316969020380       -0.65610544832470       -2.02309347084570
H            1.55181998451721        0.15525926538280       -3.44219312500102
H            0.72335224820033        2.05457368370093       -4.79639461393181
H            1.45434789047468        4.36994954456806       -4.21187802248623
H            3.00826054840764        4.67662719749521       -2.28280980013286
H            3.75538097769258        2.68490467114780       -1.01409649795844
