16
 energy: -16.976673984721 gnorm: 0.000558617606 xtb: 6.7.1 (edcfbbe)
C            0.99377115335778       -0.04565729925774       -0.08775432519142
C            0.60957074018004       -1.50594213734955       -0.21135500535772
S            1.09331457521742       -2.44325432060652        1.29331616602324
C            0.55913464598548       -4.10452850899170        0.81319747757041
C            2.87644170350298       -2.60646450969260        1.03611548606306
H            0.56194431193821        0.39883882141299        0.80531571450551
H            0.61021542934213        0.49578078241854       -0.94928463578878
H            2.07177765541166        0.08991961165180       -0.06466232962702
H           -0.47284278264051       -1.61145926265079       -0.28344079486482
H            1.08000360202771       -1.97796713058828       -1.07297260868140
H            0.93579753590341       -4.36206423781356       -0.17206441608156
H            0.92977498646986       -4.80938799122376        1.55255965572729
H           -0.52718684840333       -4.12985397720982        0.81803046837390
H            3.09082965565949       -2.95666054642884        0.03091159479390
H            3.33863486214907       -1.63812069705359        1.20542068526890
H            3.26148877389861       -3.30956859661660        1.76957686726652
