45
 energy: -51.088052169057 gnorm: 0.000257774441 xtb: 6.7.1 (edcfbbe)
C            0.80149951048980       -0.63230945870712        0.13647312244646
C            0.94008947366139        0.54706285672274        1.09147345529947
C            1.17159125343262        1.87832457703772        0.37499818918430
C            0.03404914554288        2.31998354861505       -0.54844742623728
C           -1.32295086880390        2.49737018579245        0.13620518545471
C           -1.33269870808123        3.49161880562401        1.29894529804336
C           -0.87542668491303        4.90773312626144        0.94046163244644
C           -1.69352281657760        5.58924180305486       -0.15976103832795
C           -3.17794099540744        5.76348370842936        0.15812482849752
C           -3.46014226386290        6.72563048466883        1.32229012508617
N           -3.09511808266397        8.08239997509405        0.95902774749935
C           -3.96506039217931        8.83586896786991        0.27978783171203
C           -3.61684737741937       10.09924901614465       -0.15309918186690
C           -2.34630818717033       10.58360941976668        0.11196658737741
C           -1.43832126020464        9.79192102797722        0.81900589615366
C           -1.86650438549353        8.53629866356283        1.22611291052244
C           -0.06809470811770       10.27568000529310        1.13450384544397
H           -0.10422871647692       -0.55428067940417       -0.45941236789601
H            0.75712194468877       -1.56371383558874        0.69516912569802
H            1.65457676651083       -0.67852934774289       -0.53654119293834
H            0.05214811798919        0.61069873934756        1.72332521692185
H            1.79296828077735        0.36748410001184        1.75012557615625
H            1.35636509279809        2.65184318176255        1.12414138004314
H            2.07841088264523        1.79297545990911       -0.22851715045711
H            0.32665752765661        3.25645193619925       -1.02991459803383
H           -0.08405810838664        1.58136431621332       -1.34235750376727
H           -2.05201158722992        2.80461696527160       -0.61772218775752
H           -1.65581709128064        1.53227361226218        0.52020384755289
H           -2.34084480890031        3.52374996828809        1.71992699356474
H           -0.67609893491346        3.12002624908754        2.08656833583673
H           -0.88898531729081        5.50881357834138        1.85449493652600
H            0.16168909529470        4.86831900639960        0.60629634749154
H           -1.24610971782380        6.56209423479379       -0.38867841491784
H           -1.61815619430253        4.99069306655027       -1.06726322256761
H           -3.69685180694901        6.12451493113090       -0.73272592955485
H           -3.60706608839106        4.79741761974066        0.42000407362851
H           -4.52350340896262        6.70118705668750        1.56677398358311
H           -2.89166060202811        6.42219226082635        2.20164772722228
H           -4.94194279064669        8.41815135488591        0.08929138417164
H           -4.33525111496050       10.69379139687354       -0.69382230796888
H           -2.05534250488239       11.56764520341082       -0.22178766815344
H           -1.21173788546230        7.88541989644873        1.78662273371447
H            0.39440311181635       10.71166525269016        0.25163035754680
H           -0.11796578741499       11.05797921924656        1.89155829512673
H            0.56323899389174        9.47555854314728        1.50898322047775
