41
 energy: -58.704004760908 gnorm: 0.000803131271 xtb: 6.7.1 (edcfbbe)
C            1.02468755127531        0.13368528022651        0.58665290244467
C            0.06188046055029        0.92989479690119       -0.30040941686627
C            0.13915271284463        0.59923756764839       -1.79202033209662
C           -0.47071967788637       -0.74567896741574       -2.17633235091340
N            0.63366692773155       -1.24866137816298        0.74342207538179
C            1.32233309800465       -2.31066129377326        0.34444198422640
N            0.64430413690304       -3.41588482272264        0.64767966991956
C           -0.51541001822131       -3.04610320971051        1.25540437063981
C           -0.51906321296050       -1.68629347159795        1.32162063103912
C            1.03564578800776       -4.75143456812473        0.26267831056435
C            1.13109740604024       -4.82259122694531       -1.23175752176998
N            1.34381481093127       -3.70993090833472       -1.96881983166555
N            1.38918677505125       -4.02940661185658       -3.20603157758592
N            1.21944119559718       -5.33653557990455       -3.32449611804361
C            1.04689813822624       -5.88967606039197       -2.09967616969312
C            1.22371311038574       -5.96342493108531       -4.58334956685194
C            1.02652673842004       -5.17916408954229       -5.71434499344369
C            1.02571064724575       -5.77387142408633       -6.96188028378290
C            1.21881432938933       -7.14057767889881       -7.08297270154352
C            1.42390553241727       -7.91466259921458       -5.95294441795431
C            1.43006381607469       -7.33265010987553       -4.69802479941307
H            1.05730170508158        0.58990353913056        1.58059143342087
H            2.02771668208790        0.15501377779871        0.15738037663622
H           -0.96207974649806        0.79252632456058        0.05047052312109
H            0.31468621683777        1.98257253725676       -0.16727028202814
H           -0.39969131744446        1.38552961005507       -2.32270585335588
H            1.17783122272786        0.63805714522855       -2.12331723276763
H           -1.43899438730395       -0.88053153866012       -1.69816288320597
H           -0.62353600667301       -0.77845001403307       -3.25109706369464
H            0.17611401018466       -1.58039257940117       -1.91986695909225
H            2.26449135031538       -2.29087062318102       -0.16648628348227
H           -1.24222592351420       -3.75459752615694        1.59661411088737
H           -1.24754425673045       -1.02170558664244        1.73828844636206
H            2.00780669610603       -4.98763739082635        0.71159003456976
H            0.29838273605187       -5.46486670745765        0.63580886511968
H            0.87147815647108       -6.92909711175226       -1.93090244305773
H            0.87891664731199       -4.11774834428145       -5.59694468402279
H            0.87188065710343       -5.16838958725568       -7.84122056099714
H            1.21467211208351       -7.60252816680236       -8.05764586512546
H            1.58383551777068       -8.97728556978360       -6.04588573486208
H            1.60974766200301       -7.94136090095419       -3.82549780701419
