48
 energy: -64.328576555991 gnorm: 0.000491191498 xtb: 6.7.1 (edcfbbe)
C            1.42157252677321       -1.74939235826515        2.37848556246919
C            1.16041919117048       -0.37092555343831        2.98269182479394
N            1.35170715936628        0.69470210368791        2.01593970502451
C            0.40653092025863        1.19445324313734        1.22698363626677
O            0.57472175513541        2.09055574188412        0.41842083165389
C           -1.03103297124791        0.59478337374352        1.36760183546046
N           -1.77703321012874        1.04493421459014        0.23133919937653
C           -2.18752912235310        0.29397835228600       -0.83193993049739
C           -2.61609409016371        1.15503903540712       -1.79298838813129
N           -2.44552266394927        2.41810734443728       -1.31021146107302
C           -1.92826057289737        2.32989843172462       -0.09109789696298
C           -2.72518629830281        3.63145747170518       -2.00887529269889
C           -4.04108440021181        4.08761484339784       -2.07327950142212
C           -5.15131164875199        3.32380581577436       -1.41789377442711
C           -4.28585358087957        5.26914995339735       -2.75576621534349
C           -3.25987367629395        5.98495488566911       -3.35914122444256
C           -1.96103655928345        5.49671860920187       -3.27342897055267
C           -1.66605734723749        4.32022479565903       -2.60306166118108
C           -0.26882307744622        3.78625971886562       -2.54843655155290
C           -3.54133874033282        7.24742854236603       -4.10592787116360
C            2.70160255254323        1.23967598248140        1.90079969837653
C            2.95060793727267        2.34699137073397        2.91721877587859
H            0.74634005412436       -1.95994740834168        1.55267888670242
H            1.28552889483782       -2.51257791758085        3.13890922123650
H            2.43991214535756       -1.81650246689185        2.00567849160121
H            0.15462687272732       -0.32125130540498        3.40328992644114
H            1.86471547173367       -0.19932299320878        3.79898061565007
H           -1.02043430816874       -0.49371310156060        1.38319620014080
H           -1.47660136680600        0.97593915274100        2.29099413179415
H           -2.15281579892282       -0.77598639346043       -0.82875876620347
H           -3.01226715911367        0.96726618652933       -2.76979126736101
H           -1.69580968375008        3.16527172340878        0.53869171462879
H           -6.08239212321433        3.87743728065591       -1.49010317824599
H           -5.29514515863562        2.35639480276142       -1.89850979421130
H           -4.93783181836449        3.14860392741027       -0.36364708230279
H           -5.29812731456942        5.63870491628499       -2.81561065880688
H           -1.15946855288750        6.04636336127435       -3.74293754211090
H            0.42812647412885        4.51872215130600       -2.94411673219912
H            0.03587153442961        3.53355725402697       -1.53413928959745
H           -0.18808406860262        2.88240561300884       -3.15353460218148
H           -3.53035471797088        7.05140215906850       -5.17796586914862
H           -4.51569272655741        7.64999003623751       -3.84427057718547
H           -2.77984239283806        7.99567091258390       -3.89941502938756
H            3.41038506308719        0.42247917642972        2.04236192643024
H            2.81288984977817        1.63669945821132        0.89022657545232
H            2.82695564937876        1.98453114991384        3.93497519876605
H            3.96474558127095        2.71849147336808        2.80615177210597
H            2.26131551647827        3.17090493286363        2.75198339821411
