21
 energy: -25.773127494891 gnorm: 0.000609081738 xtb: 6.7.1 (edcfbbe)
C            1.62836132282178        0.60923829558018       -0.16432328034730
C            0.41651631202688        0.63585262021256       -1.09289722213687
N            0.75778904612626        0.06549791603509       -2.39126276613701
C            1.32739207028583        0.88383951065651       -3.29122607022022
C            1.73974202873412        0.43885427064610       -4.52334219059665
C            1.55753434792314       -0.90389808730878       -4.84031096013626
C            0.97082533171068       -1.73211152981967       -3.90263214782281
C            0.57029934500752       -1.24108373607984       -2.66228287620188
C           -0.06566617310484       -2.13903927225661       -1.66429968326624
H            1.98024282462773       -0.40507554249981        0.00458892702591
H            1.35423613144640        1.03939455596617        0.79425389089543
H            2.44685520805680        1.19223022224552       -0.57910466102028
H           -0.41201551175514        0.08334870617054       -0.65316818059980
H            0.09452299348489        1.66776759043877       -1.24524805229750
H            1.44546297023534        1.91700440337812       -2.99969095538674
H            2.19142403024527        1.12499386160305       -5.22054544294761
H            1.86724933030727       -1.29150920063704       -5.79792402916947
H            0.81672967697406       -2.77692098928553       -4.12108198953921
H           -0.06756526568348       -3.16161408039218       -2.03008715386193
H            0.45750219786343       -2.11986820974698       -0.71000333843921
H           -1.10168821733390       -1.84878130490602       -1.48546181779432
