54
 energy: -67.431137797267 gnorm: 0.000750314280 xtb: 6.7.1 (edcfbbe)
C            0.99763528632098       -2.94455930922990       -1.17768850038773
C           -0.08917640898728       -3.25373026159664       -0.15542535834874
C            0.39329249133586       -3.16932857383351        1.29765947685817
C            0.66941859387273       -1.80985876645447        1.95882158436635
N           -0.49033649124166       -0.87883997793541        2.24864146173617
C           -1.74065107401336       -1.66144163668000        2.55164291098787
C           -1.64099921976101       -2.74518823720794        3.64467764916072
C           -2.54681095165992       -2.51670759032275        4.86018430365440
C           -4.03020073879515       -2.55284694295875        4.51462146905062
C           -0.13078647261466       -0.09995621829067        3.49130502586972
C           -0.67335557816104        1.30995569188343        3.79377958558499
C           -2.15657453297019        1.65219864207348        3.58763081896511
C           -3.03602459735843        1.31458196570494        4.78600010109806
C           -0.76022889820372       -0.08235978040136        0.99219740737003
C           -0.22462718814965        1.34130471778788        0.79511287443833
C            1.26593232730273        1.57840337572296        0.93440830458830
S            2.13175434674015        0.87817666460831       -0.49599496129849
O            1.17567878019493        0.22194618145713       -1.32802978606131
O            3.04630106560689        1.80675648092686       -1.05735749206947
O            3.00081386676345       -0.26293887892167        0.26585207302883
H            1.28306007639854       -1.89832892562569       -1.16872674500813
H            0.63801131941686       -3.17796953996045       -2.17582518825782
H            1.87879658795698       -3.55191695353877       -0.98625764896886
H           -0.96145476746150       -2.62440262136225       -0.33790081624769
H           -0.41298645767473       -4.28579095281998       -0.30897592269610
H           -0.28132183948221       -3.75482067329601        1.91642075275954
H            1.35950607157631       -3.67983299861604        1.33512843642365
H            1.14708916577745       -2.04158277423098        2.91262517238143
H            1.38828279745467       -1.25989940696862        1.35162870306182
H           -2.49714407893000       -0.93699908124784        2.85105780570168
H           -2.06197130281325       -2.12374289545515        1.61911537660879
H           -1.93655514191312       -3.70244587079898        3.21306896042952
H           -0.61825292707388       -2.85800718433584        4.00156436971874
H           -2.33936667480297       -3.31366553362522        5.57615348074431
H           -2.29801536562663       -1.57606236435201        5.35459042975738
H           -4.28619135283549       -3.49894355724896        4.04489553880769
H           -4.62360012370029       -2.45323172609499        5.41902537844236
H           -4.31453535982934       -1.74912838252831        3.83921435577132
H           -0.40541813623549       -0.74956746413855        4.32197254176930
H            0.95579567358984        0.00207507992586        3.50914083879300
H           -0.45443409129989        1.45510457665500        4.85535045768103
H           -0.06333083643793        2.04340211827691        3.27109006376079
H           -2.21987922809256        2.73093025762679        3.43249144595485
H           -2.56057184737410        1.18403626734249        2.69004465662142
H           -2.68579244962958        1.83778778791032        5.67162744337994
H           -4.05862921822966        1.62785395850144        4.59469655460676
H           -3.04679507466696        0.25152085740170        4.99980404542811
H           -0.38046273169709       -0.67160936829434        0.15791020455147
H           -1.84281446791552       -0.00165307048477        0.87659346837553
H           -0.47360033119859        1.56488695761784       -0.24637217796087
H           -0.77700046657957        2.05387164475384        1.40309429943253
H            1.49369243935212        2.63925233539105        0.89862460693074
H            1.72682856296430        1.14081550602847        1.81099769717624
H            3.90567697089990       -0.26271354864973       -0.05345753455756
