66
 energy: -73.220961339523 gnorm: 0.000243002065 xtb: 6.7.1 (edcfbbe)
C            1.16066763965929        0.69714078247711        0.03793861041782
C            1.11463269033371        0.05386512091996       -1.34245544674943
C            1.40312246656514       -1.44733186533427       -1.31874708457457
C            0.39090409894443       -2.28958840271388       -0.53913236568148
C           -1.04675364125031       -2.21384968811760       -1.05440074254644
C           -1.24118304674636       -2.65746045422523       -2.50566623943572
C           -0.82633998379778       -4.09953560530462       -2.80187727753531
C           -1.55829817362129       -5.16566759576308       -1.98403040188067
C           -3.07984083805457       -5.17163993613237       -2.14248288983541
C           -3.58139022344204       -5.40295654548988       -3.56934159923836
C           -3.13520588521772       -6.72056665311783       -4.20651308831183
C           -3.55252619234309       -7.98064494803496       -3.44537134432938
C           -5.06146591882864       -8.15354760414552       -3.25949557495088
C           -5.86802972878093       -8.22538830822251       -4.55772204969043
C           -5.46428160294242       -9.35480240468375       -5.50933599785858
C           -5.54440213050690      -10.76179651852141       -4.91064058624584
C           -6.93689894113201      -11.18228120625241       -4.44221873710015
C           -7.95607444621413      -11.35005168759360       -5.57999242033253
N           -7.60720624209159      -12.48374006301772       -6.41379412392104
C           -6.83723248003404      -12.31195823711395       -7.49757622933967
C           -6.41997644715681      -13.38572210011073       -8.25505448775965
C           -6.80438715323581      -14.66987689935953       -7.88846634232994
C           -7.60619298650270      -14.82755820519272       -6.76269644978529
C           -7.98715943378421      -13.71628242079036       -6.04452405825786
H            0.35938953553161        0.32413628238910        0.67105638933160
H            1.05127604451325        1.77599282023302       -0.04515280367928
H            2.11040184256694        0.48671660250227        0.52525793290581
H            0.14015569608589        0.23713839984785       -1.79899811031304
H            1.86360999620182        0.53338329737488       -1.97802311462746
H            1.45386264057619       -1.80983444022915       -2.34779759952821
H            2.38764493530519       -1.60343492638078       -0.87010190976823
H            0.72494218349459       -3.32938580967647       -0.55589264134351
H            0.39666244639314       -1.97151298779421        0.50546348485281
H           -1.67371295390140       -2.82923051666884       -0.40501938121814
H           -1.40517648684304       -1.18653985486613       -0.96302840742197
H           -2.29356342246988       -2.52456793580871       -2.76641717180486
H           -0.66719254262481       -1.99692756694207       -3.15897979135643
H           -0.98739942972700       -4.28876273159433       -3.86576348411611
H            0.24449299765173       -4.20816349669101       -2.61847999416166
H           -1.16165191963034       -6.14399934119296       -2.26492677306027
H           -1.32838038677137       -5.02321472222050       -0.92624767751141
H           -3.48879914621111       -5.94313717195416       -1.48595521584841
H           -3.47884371245559       -4.21695068388750       -1.79486662217715
H           -4.67288447999968       -5.35587628682653       -3.56001726352101
H           -3.23529811178791       -4.58648197655694       -4.20579478364466
H           -3.53263793158308       -6.76071776769663       -5.22362120142516
H           -2.04720630007345       -6.72414652184244       -4.29241424565391
H           -3.14658310812214       -8.84927990048713       -3.96986851470289
H           -3.09209406991339       -7.96652970145081       -2.45635095523141
H           -5.23521415187409       -9.05630476931180       -2.66867561926497
H           -5.44482453747065       -7.31645002262862       -2.67463657123812
H           -6.92678295988606       -8.31840718503972       -4.30270388143680
H           -5.75718778385242       -7.28292286640119       -5.09538682737342
H           -6.09149506923384       -9.28468457574809       -6.40281417232293
H           -4.43644120014437       -9.19057856328829       -5.83420676062246
H           -5.16487844651968      -11.48373828428307       -5.64113374324867
H           -4.87747587377115      -10.80973799084456       -4.05008626656750
H           -6.86290875857302      -12.12381223688821       -3.89331226512049
H           -7.32950113814427      -10.43198492144756       -3.75746155526633
H           -8.94911940372609      -11.51610543458257       -5.15841733001092
H           -7.98211256454337      -10.44791166625528       -6.19165735831438
H           -6.56801042017729      -11.29936955420611       -7.75743853741938
H           -5.80206953581050      -13.21697324529308       -9.12214961968661
H           -6.49118184040912      -15.52494817886271       -8.46547974722830
H           -7.93275495643047      -15.80479992533422       -6.44583565618828
H           -8.60683707546196      -13.79612219532606       -5.16373730639509
