14
 energy: -14.018926451880 gnorm: 0.000307503940 xtb: 6.7.1 (edcfbbe)
C            1.07567308392357        0.05339757466870        0.07067479511062
N            0.56445466142136        0.59210898267433       -1.20264301741308
C            1.07566596046291       -0.18128126789995       -2.34868973507737
C           -0.90900424824152        0.63447077422495       -1.20674766171084
H            0.72954888255683       -0.97095642194766        0.20087049781205
H            0.71978048398147        0.65190984576034        0.90728513882326
H            2.16413027163582        0.05824435465034        0.07623337400371
H            0.90677780557009        1.55581921438340       -1.29612415069720
H            0.72954129276518       -1.21156086355468       -2.27958363030717
H            0.71976829044093        0.24528367146397       -3.28473063369036
H            2.16412307936629       -0.17759415880968       -2.35508271154896
H           -1.27470103697710        1.23585354762645       -0.37644772534295
H           -1.27470621836953        1.06506561733353       -2.13714726299910
H           -1.30524230853630       -0.37521087057406       -1.10880727696260
