27
 energy: -38.975786542724 gnorm: 0.000624588312 xtb: 6.7.1 (edcfbbe)
C            1.26637676132530        0.22702987600506       -0.05219921603420
N            0.57228077693972        0.24102144831326       -1.35199612431829
C            0.80278053265524       -1.03902021785959       -2.08846737928423
C            0.13723883449539       -2.30898864777459       -1.54849961016976
C           -1.26864399252166       -2.58296506441698       -2.05848547788597
S           -1.33226975323506       -2.42209115798775       -3.86474730588937
O           -0.02234070048781       -2.58139214209187       -4.40039791804139
O           -2.43471208841415       -3.13193340465167       -4.40322615965335
O           -1.70308204010349       -0.82562823686606       -3.94900946009992
C           -0.86218476264255        0.49861399221952       -1.14220278933334
C            1.12869881870696        1.33081005493102       -2.17788108174755
H            0.90549146664579       -0.58855514872529        0.56975158762786
H            1.09149049817624        1.16331424411347        0.47493460939311
H            2.33797900811260        0.10566457986624       -0.19730914368172
H            0.48020979114955       -0.90798391955850       -3.12119577617816
H            1.88218527462943       -1.20107781271529       -2.09961776440546
H            0.76108706966362       -3.13343513059529       -1.89814377943477
H            0.14718360967824       -2.34276416282305       -0.45732472608459
H           -1.55669224326420       -3.61038282777505       -1.85652232122988
H           -2.03947508176958       -1.92400183413241       -1.67754586030770
H           -2.41537292021690       -0.70153175254549       -4.58106573076577
H           -1.00564031339740        1.51019387621295       -0.76514955798706
H           -1.39310418236985        0.39419737247362       -2.08723813060397
H           -1.26965992767655       -0.19738162237365       -0.41322543771438
H            1.04435543062205        2.28101093819138       -1.65294630398818
H            2.17892371948566        1.14551698044764       -2.39487330928269
H            0.58596641381168        1.39959972011759       -3.11871583290241
