75
 energy: -79.467800503465 gnorm: 0.000283615555 xtb: 6.7.1 (edcfbbe)
C            0.95027293980228        1.04323580752314        0.51127103883264
C            1.31801302805596        1.34818439853208       -0.93601842371224
C            1.56476129878394        0.09260858312471       -1.77402981216682
C            0.35712659943557       -0.83624583409268       -1.91630980882483
C           -0.87880894396921       -0.19665568174171       -2.55115122817853
C           -0.67383610342624        0.33130107455271       -3.97221561261883
C           -0.27977380541881       -0.72723512630190       -5.00485170679756
C           -1.25875148508809       -1.89607632480680       -5.13970318524410
C           -2.70418214914023       -1.49452882037476       -5.43830244352394
C           -2.90158718371124       -0.73337600784636       -6.75011981735088
C           -2.60143877824368       -1.54003623516951       -8.01522040473679
C           -3.44451924260443       -2.80626732847478       -8.19031606001590
C           -4.95709595008670       -2.58800906971729       -8.10412167730832
C           -5.52050761786236       -1.58136327437752       -9.10890506055286
C           -5.31816177904480       -1.94654299283201      -10.58314319593211
C           -5.80278944609222       -3.31757469487650      -11.06045049622186
N           -7.26721410686192       -3.60437428589795      -11.26706791803795
C           -7.92782104503218       -2.52972979921644      -12.13209001603778
C           -9.08006727421346       -3.04079528826568      -13.00378818066399
C           -9.53789522756946       -1.92569059223833      -13.95175677321763
C           -9.98989845086349       -0.68820505676942      -13.18908875904256
C           -8.87314278137241       -0.21554230431056      -12.26891815555222
C           -8.45943617318740       -1.34380748659523      -11.32111805554550
C           -7.30096393705762       -4.92208540460572      -11.94285040610391
C           -7.96189764793802       -3.77841715800617       -9.97810226314828
H           -0.00925926281580        0.53633732251600        0.57462359452976
H            0.88305889980077        1.96474786854927        1.08510174552262
H            1.70598814077780        0.40927413645542        0.97000544904847
H            0.53120228785758        1.95158211444844       -1.39225596832496
H            2.23201655417124        1.94701033266216       -0.94765094661633
H            1.90692337987945        0.39588305403521       -2.76580890030230
H            2.37577104250894       -0.47759392882042       -1.31372047443586
H            0.66042506132871       -1.70199699375606       -2.50915760004985
H            0.07741015333222       -1.20970195814041       -0.92932161468470
H           -1.68336434530792       -0.93554036843083       -2.55207340802268
H           -1.21267128020401        0.63323253349651       -1.92541869500268
H           -1.59631072356368        0.82171994574605       -4.29229482642749
H            0.10284256076639        1.09805603199537       -3.96003529417861
H           -0.16757192941044       -0.23416904538429       -5.97355182123172
H            0.69824165836016       -1.13557824839233       -4.74392652901961
H           -0.89435039689254       -2.55994039101006       -5.92732869799604
H           -1.25411099085820       -2.47203372229449       -4.21250637401609
H           -3.31845386342815       -2.39800251261687       -5.44316660365328
H           -3.07179217191745       -0.86686645451793       -4.62516982770669
H           -3.93093856253225       -0.36848303424949       -6.78576725960359
H           -2.25634442915913        0.14595153991053       -6.75107312586720
H           -2.73855462285185       -0.88610837383754       -8.88037212916610
H           -1.55175608712238       -1.83666562040257       -8.00819939107876
H           -3.18662590921894       -3.26181542606517       -9.15031080118922
H           -3.16862615328869       -3.52446049347256       -7.41693635618174
H           -5.45592685916116       -3.55484290805887       -8.21332946378623
H           -5.20016319820988       -2.22620421119062       -7.10487312170725
H           -6.57535883187333       -1.41431870336420       -8.87949737781285
H           -5.02215995089685       -0.62410083424569       -8.95329267040221
H           -5.71325397103733       -1.15186473554390      -11.21545135728826
H           -4.24043065954465       -1.96621762224996      -10.76053170142574
H           -5.32840663153076       -3.49848993451147      -12.02796839564660
H           -5.43306777044823       -4.06949017565555      -10.36133273608415
H           -7.13638606674063       -2.17797491179558      -12.80172626501125
H           -8.78442877205953       -3.88316687273884      -13.62583846654217
H           -9.92292193578132       -3.34470691050561      -12.38021183140155
H          -10.35362625146355       -2.30386501312001      -14.56757019087249
H           -8.71475099360236       -1.66172432324024      -14.61888422189480
H          -10.87767846130743       -0.92135079160608      -12.59849469794414
H          -10.25568995845052        0.10095546751095      -13.89113021899470
H           -9.20787709095041        0.63765610137011      -11.67929040523344
H           -8.01493049619817        0.10628584675259      -12.86215474520459
H           -9.34160722723416       -1.64384446401275      -10.75409476360200
H           -7.71961925128356       -0.95660489252362      -10.62648564218740
H           -6.69797400521122       -5.63444748171951      -11.38149272886959
H           -8.31804917255546       -5.30258971287159      -11.98931555717494
H           -6.89450358051868       -4.84944720674825      -12.94942797229441
H           -7.53956346872337       -4.63019431230161       -9.44773903728425
H           -7.85579454831736       -2.89884749218757       -9.35348972173377
H           -9.01864459431039       -3.97085331101339      -10.15100243214929
