79
 energy: -86.697872472167 gnorm: 0.000356273441 xtb: 6.7.1 (edcfbbe)
C            8.71793792350767        8.98657863786435       13.25259625181409
C            7.68612056936674        8.55239798740553       14.28668851330859
C            6.26382072228274        8.99976840129627       13.94536391542831
C            5.70573811722475        8.43564222073573       12.63701534415333
C            5.65292016126560        6.90856424610685       12.56187424722040
C            4.81334982687549        6.23788531357749       13.65074987133201
C            3.33936625999150        6.64822859059350       13.67430055661617
C            2.57453414746404        6.38557278651668       12.37488782181678
C            2.60077359835679        4.93297310646527       11.89271497861496
C            2.03842733862722        3.91843087913660       12.89113232537939
C            0.57495212278010        4.13906131534733       13.28556420140216
C           -0.47009702692339        4.23645697687229       12.17398585686384
N           -0.82073728488356        2.99105285758630       11.41098350870635
C           -2.11445457466424        3.24909982031604       10.70405879384188
O           -1.95198999188257        4.37620751862702        9.92544461183225
C           -3.01204366389806        4.61493244756656        8.97068017030040
C           -3.00086140922966        6.10750431178511        8.65038212037712
C           -1.74534245366194        6.57736826050581        7.89649269953198
C           -0.67636851982157        7.10501347495685        8.84913309791624
C           -1.18658273173940        5.44796115053303        7.02340024373741
C           -2.30490164539956        4.53208495977165        6.54015653320992
C           -2.85055734726799        3.72142818829252        7.72048333208373
C           -4.13988415868244        2.93381303965758        7.40274050973680
C           -5.31672446348938        3.82023681125096        7.00303150224832
C           -3.88830130531023        1.89014336109624        6.31520875632579
C            0.19055557940177        2.68463722607551       10.38175518186648
C           -0.98921032274607        1.83771637944977       12.30852456438687
H            8.55421776073885        8.48994100253219       12.29951408362910
H            9.71991055645282        8.73761047899596       13.59405556996486
H            8.66840389715986       10.06159767605840       13.09442122149427
H            7.71907831189083        7.46733543739808       14.40089011815659
H            7.95282406510029        8.98698851016699       15.25298196402748
H            5.60315052443808        8.72543498323331       14.77071971760307
H            6.25182921274293       10.09004919382564       13.87248966764803
H            4.70223952723373        8.84178320813166       12.48991392467657
H            6.31694127070513        8.79376055828776       11.80682094779604
H            5.26811369603197        6.62718866043755       11.57859808489733
H            6.66800532366715        6.51369532103141       12.62829669739531
H            4.88991695184912        5.15489794389476       13.52580530594715
H            5.24277108883265        6.47320974314310       14.62562249224908
H            2.85048067100001        6.12692161184016       14.50121899999487
H            3.27128335728356        7.71496896410861       13.89153471739305
H            1.54038167304101        6.71285673647257       12.51008266065253
H            2.99933776778863        7.00504228747591       11.58411923693152
H            2.05990701632617        4.87763048838982       10.94464578198017
H            3.63319433142399        4.65297174377672       11.68149313273347
H            2.19258242851681        2.90673410610033       12.50657071400048
H            2.62384415042126        3.98003346026487       13.80904434113306
H            0.28600464640630        3.38437640811122       14.01809107594754
H            0.51853085120095        5.10068489520128       13.79944857365073
H           -1.39886180766330        4.58380591276556       12.63158062405449
H           -0.16843901923558        4.98211102710275       11.43892462348129
H           -2.35960655928029        2.36092121857638       10.10011440215535
H           -2.90615234598516        3.38623189330464       11.46072810951633
H           -3.95766486571546        4.37751819693485        9.47862018781483
H           -3.09819585857445        6.66561854299364        9.58231813259592
H           -3.88715158160656        6.30860953470047        8.05019848924312
H           -2.04717596176250        7.40229920006934        7.24450320186114
H            0.20632574858388        7.40939753832595        8.29207389046388
H           -1.04432639684606        7.96605974168191        9.40141839057571
H           -0.39053669790332        6.33420267145904        9.56075743622852
H           -0.65363739824030        5.87183056208038        6.17231984124788
H           -0.46831038311981        4.85849991806358        7.59923307120191
H           -1.92280491817485        3.84856643309081        5.78238655771666
H           -3.08933465960995        5.13425338958997        6.08585819138720
H           -2.08080684134748        2.97579401285129        7.96283672729879
H           -4.42251090059478        2.39917656517088        8.32116357082202
H           -5.12660415924995        4.31848816583367        6.05715246809228
H           -6.20661694242447        3.20792402269042        6.88198837532787
H           -5.52659287550711        4.57241151889619        7.75904912786803
H           -3.03389844543487        1.26255780831858        6.56070208055192
H           -4.75973267639524        1.25012418019784        6.20667172741267
H           -3.70217576828954        2.36823561993336        5.35804463267258
H            1.17340289067925        2.59068984028329       10.83077126689904
H           -0.06364853154325        1.75124953302182        9.88150208524417
H            0.20058155372005        3.48844437417266        9.64727640930634
H           -0.02795512706345        1.54884280148359       12.72689734935151
H           -1.67284251185425        2.08737050082083       13.11823473019589
H           -1.39520550814181        0.99142158794891       11.75617575915956
