41
 energy: -63.947389138678 gnorm: 0.000934451577 xtb: 6.7.1 (edcfbbe)
Cl          -1.59976098727136        2.53179384626899       -0.74629714220767
C           -0.06787479652967        1.78190980940235       -0.54855075803898
C            0.13462232642000        0.48412017065267       -1.00602488054048
C            1.37217568880671       -0.10399352850039       -0.85323725446021
C            2.42943291927922        0.59668242185903       -0.26455223572157
C            2.20080221025674        1.88798427771936        0.21713601304329
C            0.96055771923577        2.47502581266233        0.08265060659933
C            3.73713013502012       -0.07510613887964       -0.18593029796544
O            3.88792739293762       -1.26655378839687       -0.17949076224399
C            4.97741273649009        0.86010787954451       -0.18901028627904
N            4.85447775253965        1.83834171587722       -1.23849841574510
C            4.55863438504172        1.48728912649319       -2.52799289125872
C            4.41371196278281        2.63460216257272       -3.23658161518639
N            4.62724161522948        3.67075680501485       -2.37614029718983
C            4.89585828226966        3.17459998443845       -1.16155230116314
C            5.21546531816663        4.00947971271865        0.01312188819023
C            4.46115238613680        5.07462747023245       -2.68572761840572
C            3.21906787760986        5.62449164854802       -2.01701497481099
C            1.99834879569176        4.98290527875479       -2.19007964671274
C            0.85678255308750        5.48686569924494       -1.59236524422748
C            0.92689450101096        6.63224658242166       -0.81678791614053
C            2.14143597985996        7.27315778154677       -0.63944097976161
C            3.28596127453744        6.76872574208436       -1.23392906562946
H           -0.67406235266009       -0.05655392964049       -1.47096761932169
H            1.54655710368122       -1.11266802665809       -1.19573332498303
H            2.97119542532987        2.42460220695041        0.74780578483008
H            0.78123761782272        3.46575644155159        0.46833077425800
H            5.07238185633375        1.34019144395781        0.78523207520654
H            5.85910725265945        0.23439895393097       -0.35822353553140
H            4.47850582142873        0.46461031899055       -2.83414575828906
H            4.18592346452605        2.78352413356005       -4.27197321829132
H            4.36906912559253        4.64977180501943        0.26625845215222
H            5.48020988652995        3.40822135512722        0.87718989635870
H            6.05958981396599        4.66142898187049       -0.21441668844294
H            5.34430435600003        5.62852370076127       -2.35729975083359
H            4.37835388790653        5.16823988628398       -3.77119029312534
H            1.93389561328060        4.09275867800112       -2.80069792377644
H           -0.08819729375882        4.98796836068156       -1.74106737487222
H            0.03560633898432        7.02813111693587       -0.35610322769835
H            2.20059842548168        8.16828524567437       -0.04052976343801
H            4.22939562827106        7.27757885476085       -1.10132242836085
