72
 energy: -82.824644522452 gnorm: 0.000490682335 xtb: 6.7.1 (edcfbbe)
C            1.26928027335745       -0.47868468623864       -0.63223673554007
C            1.25066932148396       -1.34778669916430        0.61919194268619
C            1.41993110631803       -0.54856741158794        1.91171587585203
C            0.31335130877660        0.47062285817615        2.19085516941877
C           -1.09317199842544       -0.11851676532639        2.30701597040204
C           -1.26650870294800       -1.16938396449344        3.40532977063468
C           -0.92300617979079       -0.68977210859201        4.81653496897256
C           -1.72151000807160        0.52305885107339        5.29749822947080
C           -3.23757504566520        0.32305077313706        5.33669126674814
C           -3.71580691090873       -0.81060051161846        6.24614781214387
C           -3.28046427475565       -0.69071295976387        7.70795017265775
C           -3.70379133848522        0.60564668535354        8.40088875383718
C           -5.21462893134698        0.83637346942712        8.46748940176508
C           -5.99740598181368       -0.23472917718808        9.23002732454264
C           -5.53410949097551       -0.47049751898729       10.66995590630842
C           -5.52311749972871        0.77925679370950       11.55382655082216
C           -6.89041581687138        1.43036917853351       11.76169577308623
C           -7.85584168744859        0.59087138480077       12.60998870382948
N           -7.35536603962346        0.44991707662653       13.96537134618651
C           -6.65075321390206       -0.65613862819276       14.30993221693904
C           -6.09244972122956       -0.78539968086954       15.54639435138790
C           -6.23207562486553        0.24285728168711       16.50424944140332
C           -6.97993190359966        1.39883398345030       16.12024887435839
C           -7.51664605779187        1.44101461145257       14.83084375642576
C           -7.14750653484304        2.45483810673356       17.04484486720213
C           -6.59452802426863        2.36089649048363       18.29230982406719
C           -5.86051685158141        1.22183849617700       18.66887170151682
C           -5.68014332212859        0.18063781812663       17.79494059573193
H            0.40905298732031        0.18529313774521       -0.66115606117729
H            1.24529257298915       -1.10111645172550       -1.52377529218811
H            2.17274238673589        0.12669366996733       -0.66212535454207
H            0.31993743772569       -1.91686174378251        0.65426493445823
H            2.06878527564663       -2.06997165721782        0.55770994688506
H            1.48460375841678       -1.24740158148933        2.74852862320765
H            2.37014291890455       -0.01012334329337        1.86454076888935
H            0.56017685600199        0.99882863631940        3.11451504736590
H            0.30669140959861        1.21509174237984        1.39219465372268
H           -1.79291221802403        0.70205240458062        2.48151806751906
H           -1.37001668767758       -0.57452224615314        1.35445401683711
H           -2.30159366440476       -1.51791892115746        3.38487765051001
H           -0.63699563710780       -2.03181486700691        3.17670446087882
H           -1.07867115697195       -1.52165778868204        5.50733991342925
H            0.13803616699110       -0.43578439591098        4.85947432621715
H           -1.36603121751551        0.79323596388194        6.29451957805009
H           -1.50828584270728        1.37203184972710        4.64516651163948
H           -3.69830964423224        1.26101868299667        5.65540074456863
H           -3.59832741015148        0.12152912064049        4.32649312832041
H           -4.80624525054876       -0.85433080699729        6.19416677582165
H           -3.34250094370608       -1.76079619667851        5.85979342469205
H           -3.68140181775428       -1.54621713317899        8.25678481679030
H           -2.19266074370839       -0.76185503474684        7.76204469393504
H           -3.28781535728752        0.60710907012805        9.41138951287213
H           -3.25726217274302        1.45106450495525        7.87546274018842
H           -5.39515289677037        1.81405344496418        8.92112480387572
H           -5.61225595588941        0.88254650785711        7.45293280183728
H           -7.05526531395406        0.04002022942379        9.22259277427899
H           -5.91581017469833       -1.18214442835253        8.69564563026537
H           -6.17166689279040       -1.24228261652377       11.10998859999011
H           -4.52069987038102       -0.87290383407464       10.65206321908351
H           -5.08310240185999        0.52639858902779       12.52354845586316
H           -4.86834715131707        1.52027834730328       11.09644589748029
H           -6.75412718267386        2.40198093636259       12.24224042872761
H           -7.36183556716021        1.60346053192245       10.79531783158164
H           -8.83201817888842        1.07890617181155       12.64311516397132
H           -7.97630530821803       -0.39918917702280       12.17017091124756
H           -6.55985614127872       -1.42723339479315       13.56168131027020
H           -5.53879908738851       -1.67656801336062       15.79558902270580
H           -8.08758634209194        2.29919179054779       14.50519876944235
H           -7.71128142040465        3.32663838473466       16.75104780573789
H           -6.71893113259706        3.16498889657672       19.00077421622328
H           -5.43697528633280        1.17347187350423       19.66004433627847
H           -5.11730654995829       -0.69364460216504       18.08290655940267
