57
 energy: -85.001124934467 gnorm: 0.000808574621 xtb: 6.7.1 (edcfbbe)
C            1.43364731828701       -1.23320604431283       -2.62806161186962
C            1.40820560197234       -2.75376001133204       -2.53322273724770
C            1.89636280579417       -3.25457266159394       -1.17724410404139
C            2.01856476036659       -4.77662009790544       -1.11195518130856
O            2.20871754191746       -5.53833827391299       -2.00572780833436
O            1.82821190864077       -5.17767829383963        0.17069475968177
C            1.62900459205553       -4.04508505111657        1.00283525085091
C            1.04511745083381       -2.97669014306038        0.07174251518508
C           -0.44801333335662       -3.23514308893937       -0.22116709504930
C           -1.26817655765980       -3.41570169371462        1.00400785023264
C           -1.75043181788713       -2.48582802021134        1.87959787012322
N           -2.45471237382759       -3.14360247127819        2.84645097008256
C           -2.43184655914146       -4.44277296145424        2.55376702420298
N           -1.70213041805795       -4.63843957671306        1.45735597557227
C           -1.45929354122608       -5.91501805827697        0.83564427655681
C           -3.37539482108064       -2.55333649471943        3.76841796481827
C           -4.80878980541331       -2.85821021429900        3.22105745371265
O           -4.92004210836367       -3.77231330202778        2.43258543336148
C           -5.88967375119344       -2.00483786748877        3.67091333702133
C           -7.11346058963314       -2.09917941652768        2.98958820622490
C           -8.16793513581136       -1.28308660668027        3.32107455704223
C           -8.04997452917613       -0.34754049838601        4.35425455574798
C           -6.84109290134703       -0.28282011033799        5.05800328167931
C           -5.77714621363167       -1.08881465098434        4.72566507299976
C           -9.15818830976137        0.54905654150526        4.68318945739954
C          -10.47890076781263        0.10123215640847        4.62998907657882
C          -11.52135987470702        0.95629325437181        4.93193603785090
C          -11.26536984338286        2.27330873822712        5.27746815477866
C           -9.95820171885294        2.73055890702760        5.32793289648040
C           -8.91173066567797        1.87585683851322        5.04040191677979
H            0.77159160811913       -0.77834417023698       -1.89390536004406
H            1.11215859021282       -0.91752565164507       -3.61630958699507
H            2.43938438353198       -0.85531817481403       -2.46259689039330
H            0.40417153064785       -3.12422699861141       -2.74214527671452
H            2.06804810535613       -3.17868230279774       -3.29119725528086
H            2.90417013204867       -2.85486184236911       -1.00766891840709
H            2.59369258641399       -3.72065759997647        1.40993363153531
H            0.98464415441987       -4.33782980815559        1.83246956217600
H            1.18474680016715       -1.97546063668245        0.47741287850612
H           -0.84112275640150       -2.38789753979308       -0.78429091763292
H           -0.53557985558492       -4.12702042446255       -0.84249341596931
H           -1.64182271425534       -1.42089791370261        1.87385522502253
H           -2.90463269641388       -5.21496500751511        3.12729015773651
H           -1.82593529876594       -6.70604168032846        1.48549593520012
H           -1.98775262654278       -5.97616337645509       -0.11717285399442
H           -0.39340666700920       -6.06539820620229        0.65755016636990
H           -3.28359294378027       -3.00980001423302        4.75753997373166
H           -3.19195632182194       -1.48228043464543        3.83413899612192
H           -7.19758485527218       -2.81288575581423        2.18402814084402
H           -9.08847920161357       -1.34610900688535        2.76187650515862
H           -6.74991362625929        0.40175956807027        5.88696551030189
H           -4.86879515027160       -1.02182893589529        5.30468757194427
H          -10.68586724532847       -0.92945367075891        4.38265859150290
H          -12.53774902257186        0.59507605506176        4.89661144271197
H          -12.08134354848615        2.94118384784577        5.50638033479230
H           -9.75460166184923        3.75725360127157        5.59090676548816
H           -7.89712804191606        2.24612525261451        5.05795372926777
