29
 energy: -29.855625385622 gnorm: 0.000306141128 xtb: 6.7.1 (edcfbbe)
C            2.29459595544797        0.20301203031094       -0.27899326637491
C            0.98744042560196        0.97902448555559       -0.38351506048048
C            0.60787593905408        1.31456060451114       -1.83075882026125
C            0.23510761170668        0.07090417738257       -2.66092534195067
N           -1.22419161299446        0.05359916523717       -3.09381750035352
C           -1.55748129326344        1.17377091991158       -3.99192068196860
C           -1.52754536380791       -1.20891327772722       -3.79914772287060
C           -2.08917869441434        0.10688971786608       -1.89800355799906
C            1.19796745446954       -0.08582862467175       -3.83226835338643
H            2.23220555838259       -0.76714682468380       -0.76663280941814
H            2.54138217848901        0.03486775097081        0.76503771487590
H            3.10808720614042        0.76453984859819       -0.73076564344845
H            0.18538493893091        0.41472404919506        0.09705815764009
H            1.09734627316089        1.91696634300843        0.16190837380208
H           -0.19664899909277        2.04820575931878       -1.81395145538678
H            1.46014447950521        1.80885306529414       -2.29810792053862
H            0.33607932518760       -0.81104778389111       -2.02071809709734
H           -0.98363877808094        1.10317705676337       -4.91241730337558
H           -2.61620491556495        1.14107795944226       -4.24222530542576
H           -1.34403072056395        2.12900464453552       -3.51945858045142
H           -1.20492023225670       -2.06237913477174       -3.20572119500909
H           -2.60061562976410       -1.28791206397610       -3.96493458390667
H           -1.03381470567465       -1.24166762759679       -4.76643036387120
H           -1.88291285301555       -0.74445376990365       -1.25199191302045
H           -1.92533697822819        1.02029001099631       -1.33336122860003
H           -3.13564816822774        0.07149709732931       -2.19548498318307
H            2.20433019389358       -0.13998086830878       -3.42464524799971
H            1.03835023840828       -0.99860988411199       -4.39782153831639
H            1.16599116658074        0.76657517341649       -4.50514577162404
