55
 energy: -74.428348610614 gnorm: 0.000384248975 xtb: 6.7.1 (edcfbbe)
Br           0.51227093209032       -0.53613522152018       -0.55121126021406
C            2.38656300782337       -0.90682963750538       -0.99483466015378
C            2.76108414468277       -0.38201702512835       -2.37046912562568
C            2.52158201131552        1.11679010144772       -2.56090790205969
C            3.28123164072826        2.02504366967213       -1.59300259955875
C            4.80745745520630        1.94323700551232       -1.67819302341721
C            5.40178323131869        2.30560987772668       -3.04211886969321
C            5.13044956341531        3.74308729533684       -3.49293536759195
C            5.91366922356332        4.79252531892859       -2.69626309345933
N            7.31993004771937        4.80704773439611       -3.04394094001986
C            7.85314067804439        5.41591217798655       -4.11690884755245
N            7.17494430700263        6.14699158295887       -5.00805594393171
N            9.18475472917695        5.23828639283421       -4.14733730689425
C            9.53904086991352        4.46576329369400       -3.04846202072244
C            8.35427174523202        4.19171242780334       -2.34707722126794
C            8.36859466932126        3.44043621160034       -1.18388550985153
C            9.59449089555600        2.96853276339844       -0.75109707752161
C           10.76813283424038        3.23585826067993       -1.45080172758932
C           10.76322070804111        3.98981943281923       -2.61030559975683
C           10.07878542154142        5.80101984911371       -5.14250408287116
C            9.64908659000287        5.43526874581620       -6.54315390133166
C            9.39678603758043        6.42243676732877       -7.48941501841250
C            9.00915438366604        6.07404284825794       -8.77327649513760
C            8.85928490450843        4.74071420045793       -9.11446563537445
C            9.10330429260920        3.75343677470748       -8.17281894198342
C            9.49795679895197        4.09775029671657       -6.89256898448104
H            2.97802498995284       -0.45064210572496       -0.20299691125800
H            2.49599350764866       -1.98938217154971       -0.94814427527338
H            3.81398721601188       -0.62422473484067       -2.53854497247751
H            2.17691947360792       -0.91659340530381       -3.12305724683053
H            2.77407779936232        1.37689334349278       -3.59066468862052
H            1.45520319761299        1.31346249672531       -2.43365922119646
H            2.95893989194587        3.05326194103425       -1.76965134676267
H            2.98653530487803        1.78464908985771       -0.57051864561717
H            5.21850181766929        2.59841969515129       -0.90641342549783
H            5.12900003626675        0.92940066191844       -1.43397254516672
H            6.48103000946240        2.13383346020469       -3.01334681708287
H            4.99076785879681        1.63099775735193       -3.79337007923018
H            5.38474280352836        3.83382779737316       -4.55221548653459
H            4.06785773426020        3.96015469085352       -3.39098455462156
H            5.50441908154286        5.79149782491560       -2.87203672327770
H            5.84014054290240        4.58769752152264       -1.62854722148805
H            6.16987500609094        6.15716555897969       -4.98948489471370
H            7.63790089109898        6.42513843256551       -5.86193178239223
H            7.46863580948906        3.22371007406526       -0.63362456797364
H            9.64212321117649        2.37961763847795        0.15059037198187
H           11.70288090275302        2.84830860486490       -1.07918744716411
H           11.67873653833682        4.19350624661171       -3.14101327006333
H           10.11406830832735        6.88929651975267       -5.02312879553212
H           11.07555761414511        5.40378854012521       -4.94183778364504
H            9.52876776945009        7.46409175399185       -7.23118581669529
H            8.82853420237873        6.84544306897916       -9.50531353014930
H            8.56103013808256        4.47012544643942      -10.11491937792858
H            8.99614632846906        2.71343860063556       -8.43906088329702
H            9.70066089139531        3.32720450643702       -6.16219690507615
