34
 energy: -48.969258158711 gnorm: 0.000443690299 xtb: 6.7.1 (edcfbbe)
C            1.47935190719008       -0.26892530911961        0.15989196908170
C            0.93915797222486        0.92786168942029       -0.28430720113774
C           -0.43411610837738        1.09882873985669       -0.24676039531164
C           -1.24731295647403        0.08067990305487        0.22550134206137
C           -0.69204435642880       -1.11188566367732        0.66096705737627
C            0.68045936064473       -1.29787625792893        0.62954184868989
S            3.27968588004852       -0.40451149318577        0.08434506422900
C            3.76174363511915        0.16087874389677        1.73025782113616
C            5.00125867126840        0.77503447154962        1.82778612237359
C            5.42633013121122        1.23528717723716        3.06267934896247
C            4.61531508490005        1.08304229480537        4.17634613063554
C            3.37643066972474        0.47154962110438        4.06106800183506
C            2.93706930915789        0.00681829978519        2.83270033342808
C            3.51358016155805       -2.19528495526060        0.16851583053191
C            3.99826428125818       -2.82940422507402        1.29824232712831
C            4.16315917745975       -4.20544229514929        1.26813356140224
C            3.85490254403824       -4.92362303818750        0.12437629200096
C            3.38239351299406       -4.27101033327417       -1.00402587501644
C            3.21455303296084       -2.89757355822407       -0.99021317329302
H            1.58305708896106        1.71120912957581       -0.65262605526172
H           -0.86542651443900        2.02524893443883       -0.59002301628590
H           -2.31708282842094        0.21468821765843        0.25133129072018
H           -1.32448322774535       -1.90529681074248        1.02689007082707
H            1.11061968314107       -2.23153465875386        0.95949472060085
H            5.62179795240401        0.88927509954706        0.95258336677233
H            6.38823222222548        1.71471747423138        3.15058356718718
H            4.94713378567055        1.44431196166571        5.13687874017494
H            2.74460455589851        0.35481984488706        4.92738689460719
H            1.96961867880725       -0.46306895417668        2.74288368734135
H            4.24474286448667       -2.27200666907332        2.18872977502442
H            4.53656206833613       -4.71142552429442        2.14427438687351
H            3.98796395534210       -5.99375359874129        0.11025478631312
H            3.14770985328873       -4.82732633632742       -1.89729412171612
H            2.85022795156477       -2.37782192152466       -1.86291449929319
