37
 energy: -52.910544722171 gnorm: 0.000894445701 xtb: 6.7.1 (edcfbbe)
O            1.62555631903790        0.48395752974768       -0.20379891944553
C            2.67104911942037       -0.09835880535168       -0.06764735365236
C            3.07174778576415       -0.84864111373463        1.18436587537011
C            3.81485891440781       -2.15150861520926        0.87463473182036
C            3.98600886932690        0.09589685593680        1.98562567113694
C            1.80895004703803       -1.14875779905893        1.99708992486665
C            3.70404443992926       -0.01700088053095       -1.21207962331333
N            3.05490224571233        0.41003371665598       -2.42493120348223
C            2.45587870005567        1.59654200495006       -2.61560417306312
N            2.53845549395984        2.68356959599308       -1.84797517836314
N            1.82627550227538        1.60443979429327       -3.81058289456390
C            1.98925221277850        0.35687620752405       -4.40682846492075
C            2.75797603247144       -0.40587590990838       -3.51570790454887
C            3.09153103503026       -1.71640437237502       -3.80977966031550
C            2.63527662978311       -2.23038704893024       -5.01198204523685
C            1.87470152253602       -1.46838040438706       -5.89407967971688
C            1.53656872364122       -0.15707868174253       -5.60863504048638
N            1.13152550154251        2.71889313028445       -4.25841491921389
H            4.81216601987169       -1.96854692743306        0.48188868631633
H            3.92488415517464       -2.72030696120342        1.79411679393126
H            3.25310848565207       -2.76335710080582        0.17195667175879
H            3.47628135577183        1.02970974744549        2.21111774788125
H            4.24623282498469       -0.38198525869181        2.92616039521968
H            4.90718523036365        0.31242032534483        1.44928961840238
H            1.25231250798885       -0.23586618615463        2.19105214258160
H            1.16153277331828       -1.83267340112902        1.45369321789344
H            2.07487912471513       -1.60253338035330        2.94689902844905
H            4.48317884102589        0.69814217344327       -0.92983396452405
H            4.16895782182685       -0.98288455127990       -1.39371860398999
H            2.71096748731096        2.58733898440412       -0.86061299918927
H            1.95674604094295        3.45845297043409       -2.13840232791241
H            3.67921100744644       -2.32432368326610       -3.14146457958336
H            2.87539088903651       -3.24898968965877       -5.27052587214867
H            1.54006595338527       -1.90957300545882       -6.81897915213219
H            0.94597590160757        0.43109789518293       -6.29255437627303
H            0.14606779661170        2.50466101603136       -4.39907712838014
H            1.52180668825567        3.07280182900026       -5.12963444117090
