26
 energy: -33.805676062367 gnorm: 0.000630002433 xtb: 6.7.1 (edcfbbe)
C            2.46030031352423        0.50378415860682        0.12829743413239
C            1.38666576101956        1.56691620457856        0.26834089511645
N            0.91901688595317        2.03686655858134       -1.06145028322097
C            0.07320390311024        1.09839527473367       -1.84569392878102
C           -1.27798627889519        1.84487972695869       -2.00478198022752
O           -1.36658918132423        2.96098703431296       -1.53970853605755
O           -2.16700814515192        1.16505002552641       -2.64917056724965
C           -3.47517458277037        1.75258826154735       -2.85618325842355
C           -4.38223858629941        1.48330634825016       -1.66861333264268
C            0.68529066208437        0.77017255839436       -3.19888459980096
H            2.08974243701125       -0.38255052317136       -0.37901656955497
H            2.79829633647177        0.20288047792263        1.11516509429578
H            3.32114060317011        0.88798403031915       -0.41382942775709
H            0.52522242353602        1.18514901914558        0.81844472571800
H            1.78291312594946        2.42897486890563        0.80805409999492
H            0.26790667730883        2.87197823894638       -0.95727896313839
H            1.73197409137524        2.32420538722252       -1.61630900893708
H           -0.09969238130665        0.18339365826537       -1.27387565281087
H           -3.35398825767110        2.82633476868620       -3.02010643979820
H           -3.84847788532700        1.27005950453576       -3.75982523786575
H           -4.01389171128766        1.99062996003252       -0.77951199914762
H           -5.37645468175850        1.85698451192162       -1.89235302276379
H           -4.44707988809672        0.41592835638686       -1.47280411614170
H            1.63144762754467        0.24759379475892       -3.07947831464715
H            0.01123129009239        0.12410205602132       -3.75467277523220
H            0.84536944173299        1.67300573861311       -3.78510423506684
