21
 energy: -32.872877902601 gnorm: 0.000175317965 xtb: 6.7.1 (edcfbbe)
C            0.83643712477508        0.34969760619648        0.15102351439458
O            0.28972278627481        1.20212509319025       -0.85735880668857
C            1.02973679012151        2.23362771340712       -1.21942258497323
O            2.11138949828459        2.52170505127699       -0.78723412749078
C            0.35504147396552        3.05799238982814       -2.29111033843461
C           -0.90541251630697        2.75911330043823       -2.80133952695666
C           -1.44069148016403        3.57043053396555       -3.78111103542882
N           -0.77474029062044        4.63260613582445       -4.24630021127151
C            0.44011014908117        4.93763270828448       -3.76807779723719
C            1.03204103994403        4.17129369354715       -2.79047101166981
C           -1.34411256555410        5.45922275030623       -5.28620406399647
H            0.17591877499356       -0.51063191846727        0.21082772986786
H            0.86958221968269        0.87530775877039        1.10650887349893
H            1.84849778489059        0.04584381528543       -0.12024311046001
H           -1.45609424270753        1.90644443284727       -2.43663422956871
H           -2.41531989171674        3.36951862682215       -4.20187477833966
H            0.93106761221911        5.80635947839858       -4.18268079200602
H            2.01003111229661        4.41393921429338       -2.40090440365035
H           -1.26614772700132        6.51262900474273       -5.01731527579546
H           -0.80454171746178        5.30584164156314       -6.22299255297614
H           -2.39142593499653        5.21201096947915       -5.44398547081747
