31
 energy: -39.318189409106 gnorm: 0.000178928738 xtb: 6.7.1 (edcfbbe)
C            1.11911455976592        0.20598275965775        0.23878812170640
O            0.19304863247483       -0.64025587781970        0.88909250865364
C            0.63871949042069       -1.65975218063048        1.63540508473509
C           -0.34530858057878       -2.47697213916656        2.20837300468895
C            0.00282487083706       -3.55304610750481        2.98948663810416
C            1.34363299432067       -3.85095026135334        3.23934377975194
C            2.31832305349902       -3.04711932072280        2.65836136402675
C            1.98075365242366       -1.96439743441905        1.86896992929109
C            1.72322251676455       -5.04061040174221        4.07463269875523
N            1.85014115726569       -4.74665094907141        5.54917046603537
C            0.56645421652774       -4.26160357829218        6.08280147574720
C            2.22999949197953       -5.98662155315633        6.24774693189247
C            2.88519537522352       -3.72413665796385        5.77370018788065
H            0.51815762159655        0.92945868490418       -0.30815123179470
H            1.74261839683951       -0.35222072571851       -0.46477284742570
H            1.75277110925878        0.73214456862630        0.95820089816533
H           -1.37847313510900       -2.24668982922209        2.00699176918096
H           -0.77705002730261       -4.18268973294029        3.39185121854565
H            3.36462992624745       -3.27494798394674        2.80325107221938
H            2.76676755527092       -1.37224301720048        1.43015829471704
H            0.96958226783435       -5.82315734574453        3.96652584642011
H            2.68547730267555       -5.43467739294488        3.74166868371051
H           -0.20638199598242       -5.01527570492746        5.94433008408853
H            0.66013565904457       -4.04850112357521        7.14603934773586
H            0.26866345844026       -3.35253428345166        5.56350860771079
H            3.18168878326991       -6.35727390969217        5.87094405054220
H            2.32731876378725       -5.80075723545711        7.31617705656124
H            1.47307616833439       -6.75410760073848        6.09558389955028
H            3.84626706338054       -4.07531742665968        5.40269256310830
H            2.61923848140806       -2.80736077501785        5.25036110093923
H            2.97731117008130       -3.51195546410609        6.83733739475755
