50
 energy: -51.611916899000 gnorm: 0.000821476087 xtb: 6.7.1 (edcfbbe)
C            2.83415284835145       -3.17939995873750       -0.13779242358691
C            2.26279085804872       -1.77021772921561       -0.25369243545818
C            0.73574795223656       -1.73965074698452       -0.36818176312711
C            0.06362311036769       -2.14591998521420        0.94586499580257
P           -1.74228999931293       -2.34703376949960        0.76021812134952
C           -2.05640556388822       -3.74010551191713       -0.39027662996071
C           -1.13424654913722       -4.95303231088318       -0.25490637106662
C           -1.23990460193266       -5.64501328630101        1.09666872069290
C           -2.60296380642079       -2.69802956480873        2.34772136612087
C           -1.76420949011120       -2.51931871361374        3.61534660422017
C           -1.56731866362580       -1.05562382849704        4.01258340526520
C           -2.80899922730549       -0.44689164109759        4.65399770519076
C           -2.57405101346418       -0.94965371169988       -0.08614262063323
C           -2.73148492706512        0.35986411645261        0.68818927251151
C           -1.47253898170026        1.22802494873309        0.71720512036161
C           -1.16960266320875        1.88372096412991       -0.62517323880962
H            2.54122945406956       -3.66262573650238        0.79195279113294
H            3.91943112735827       -3.13760634859610       -0.15699625649125
H            2.50722415074828       -3.79687219310192       -0.97273065742178
H            2.57538429921741       -1.17546458889731        0.60705908715627
H            2.67666588460365       -1.29890902897940       -1.14629751712118
H            0.42768958948846       -0.72816660632761       -0.63783915003894
H            0.42863498380926       -2.41116356368982       -1.17397181875115
H            0.44960641983284       -3.11079427156716        1.28400572149177
H            0.27345589157224       -1.41224557815435        1.72621613797670
H           -3.09743357568886       -4.04166072009295       -0.23398916561371
H           -1.98205686059807       -3.33470716268134       -1.40409517187763
H           -1.40862300633123       -5.66319550618689       -1.03744103015471
H           -0.09911361422849       -4.66010295558000       -0.43684699411289
H           -2.26139834185625       -5.96546324985314        1.28898317153851
H           -0.60675451953791       -6.52808011082960        1.10897027062027
H           -0.91892157096824       -4.99007599859416        1.90549978881208
H           -3.48369582477986       -2.05211905112560        2.38545717736837
H           -2.95776608329148       -3.72917006889029        2.28045236770770
H           -2.27274844893757       -3.03463278095040        4.43237030993715
H           -0.79323826570023       -3.00248294360460        3.48758295174111
H           -0.74559165058795       -0.99553361331016        4.72757178958266
H           -1.28591617679351       -0.47015167837064        3.13337920000335
H           -3.06766963924823       -0.98483415689981        5.56224617037468
H           -2.62344955982129        0.59073813410564        4.91726732748150
H           -3.66864891676523       -0.47570483582042        3.98763901916293
H           -2.04636979698711       -0.77635358955994       -1.02701409596428
H           -3.56512779905464       -1.34736669747355       -0.33594491856314
H           -3.52957520608443        0.93416760977232        0.21339063490626
H           -3.05235341779709        0.15043582012407        1.70979923291065
H           -1.62082837636013        2.01509839092511        1.45821998523479
H           -0.61459294832069        0.63383063489245        1.03867604814675
H           -2.00044294578558        2.51220905828889       -0.93522410172661
H           -0.28545972577538        2.50993182110574       -0.54301927281461
H           -0.98844481120461        1.15001229556241       -1.40799886150517
