55
 energy: -61.386607172003 gnorm: 0.000161093560 xtb: 6.7.1 (edcfbbe)
C            0.01560393115814        2.74938288938510        1.87215972943718
C           -1.48997625973387        2.94024513771411        1.77299694808074
N           -1.98962392690236        3.32723285095407        0.41753385311899
C           -1.47870782731226        2.33616504064141       -0.58925489194920
O           -1.79637419979939        1.06731393096035       -0.15468150616416
C           -1.82785654292962        0.04419284460798       -1.18381716294268
C           -1.30783205428927       -1.25035915607714       -0.55616513887856
C           -2.30305844914498       -1.97565416367128        0.35208946685872
C           -2.49438237219573       -1.26431686589383        1.68917718990110
C           -3.62054936308762       -2.17285089375168       -0.39806011515953
C           -4.19057868431542       -0.85380192486269       -0.90541240352654
C           -3.23781547182756       -0.03618695218137       -1.79322006624423
C           -3.26097913532702       -0.43559196208803       -3.28953347826901
C           -2.88459693522509        0.76381784100987       -4.16424191856857
C           -2.39344988299297       -1.62755851822772       -3.68286309364027
C           -3.48399761679299        3.20633588307552        0.38303046329639
C           -4.28006057979671        4.08440207383704        1.33115499389389
C           -1.53114474542845        4.68883231350054       -0.00962762325908
C           -1.41503683914184        5.75401914384434        1.07259092514592
H            0.33470445280550        1.84494564225448        1.36319023444723
H            0.26869467146537        2.63614921055039        2.92347133956844
H            0.57559417754090        3.59595881893230        1.48561726189769
H           -1.97289898106976        1.99643163047062        2.02923408893034
H           -1.81516340019013        3.70712376266007        2.47284849452212
H           -1.93801029124995        2.57170947433716       -1.56185944123941
H           -0.38931137176121        2.46850633059382       -0.67848687871430
H           -1.11345637521620        0.34963931954000       -1.95927034844656
H           -0.40453289835423       -1.00955966853125        0.00818117056328
H           -1.02468516107149       -1.92068910279612       -1.36597981306827
H           -1.88372197921139       -2.96431298421240        0.56723198330738
H           -2.87112843525243       -0.25668643154840        1.54593572706667
H           -3.19749456845603       -1.81506160740378        2.30902737859035
H           -1.54716423791175       -1.20365095069581        2.22011909223655
H           -3.45905358112535       -2.85466709510627       -1.23242678401315
H           -4.35161418517913       -2.63914886991186        0.26452597982586
H           -4.46360022108303       -0.24512985494579       -0.04028815584866
H           -5.10948503735969       -1.04701496929649       -1.46120119982588
H           -3.63472998252898        0.98944468615776       -1.78132861880428
H           -4.30054153889148       -0.69189915159634       -3.51951179823430
H           -1.86000564713992        1.08263007339120       -3.97804850257237
H           -2.96110296764104        0.49532207039202       -5.21410736959978
H           -3.55128202272771        1.60607440269744       -3.98621521313274
H           -2.63160019194153       -2.50914181656773       -3.09790178889959
H           -2.57290226158222       -1.86677294122155       -4.72853822911651
H           -1.33547004722951       -1.40233299114851       -3.57277246607171
H           -3.79855836623074        3.42431635991452       -0.64068108892686
H           -3.70270656697400        2.15589860549657        0.58732181865978
H           -4.21559909682510        5.13569449334658        1.06829170412893
H           -5.32451618544685        3.79428122730835        1.24014108664720
H           -3.99606269504965        3.94773442957579        2.36978887257906
H           -0.54906179743350        4.57666107044094       -0.47381279314198
H           -2.22345019956180        5.03007099595873       -0.78184245933436
H           -0.61683939723807        5.54015507401227        1.77644810573365
H           -1.16766086465744        6.69013241639611        0.57685639517161
H           -2.33649579309505        5.90851882777763        1.62200604396610
