50
 energy: -57.694594683566 gnorm: 0.000429655178 xtb: 6.7.1 (edcfbbe)
C            1.09087036523905       -0.08152596607988       -0.24330180829888
C            0.68901953367751       -0.89834557987987        0.97880970674544
C            1.12959878876260       -0.26565216450825        2.29988484200744
C            0.53065325674918        1.11306982664912        2.58724648542388
C           -0.99789781776611        1.15708959891604        2.63704270862002
C           -1.63642620381742        0.24220406833602        3.68367465232870
C           -1.20191048347580        0.50480412750686        5.12799124039238
C           -1.45339437986726        1.92936614847085        5.62932018460383
C           -2.91753264727459        2.36938999580529        5.61031839892571
C           -3.80052499310356        1.63812457332777        6.62808355471085
N           -3.43737406170315        1.99244115656063        7.98307713210712
C           -3.69481877267130        3.21932667786924        8.52712052065440
C           -3.15327033630783        3.23535546757972        9.77062389611494
N           -2.56553656443271        2.02012160384992        9.96999191542019
C           -2.75369923515436        1.26835236592758        8.87638119251676
C           -2.28805878417873       -0.12574427246373        8.73024209383000
C           -1.89471279312590        1.60562931370440       11.18638405022365
C           -2.76829508582154        0.69816275794122       12.01189575270162
C           -2.36235567712606       -0.45166852906428       12.51459593049925
H            0.56978203363919        0.87205886364141       -0.26994306810069
H            0.84631946054321       -0.62369325011292       -1.15342408965889
H            2.16149187905998        0.11004920645781       -0.23753525707846
H           -0.39229881452626       -1.04786833564574        0.97781634768335
H            1.15144923736467       -1.88566823929209        0.90869852719375
H            0.88132303284199       -0.94929275016069        3.11523982481525
H            2.21725290527862       -0.16162467709138        2.28761891562863
H            0.93831795371417        1.47309591149408        3.53511666372390
H            0.86225652451581        1.81013877054714        1.81638501849953
H           -1.30764444513070        2.18975784291596        2.81448038553325
H           -1.39290423569149        0.87376324086748        1.66062045572927
H           -2.72273996363387        0.33197794396940        3.60479908542233
H           -1.38949591364309       -0.79345047833051        3.44624582425451
H           -1.71293780080695       -0.21686032583970        5.77039094680104
H           -0.13298945838839        0.30565501467618        5.21503048460247
H           -1.05653714815768        2.02674078824197        6.64474604080551
H           -0.88928755137723        2.62074439511338        5.00394058986992
H           -2.96889176700850        3.44237730701801        5.80558562195273
H           -3.33642875341962        2.19668798467632        4.62031662229709
H           -4.84468695133996        1.92246024465990        6.47621842044285
H           -3.71044949182474        0.56056995373544        6.49864432506887
H           -4.23996663041157        3.97590912156548        8.00208696056195
H           -3.14195144761639        4.00883479746348       10.51038488148194
H           -2.93583036384019       -0.68342941280681        8.05937693716177
H           -1.27522465398763       -0.15749080884942        8.32620535081930
H           -2.28774370698644       -0.62187381926359        9.69819113691131
H           -0.95495015498586        1.10907871032858       10.93362778935701
H           -1.66675493084097        2.51011406463418       11.75724130777063
H           -3.76805769510784        1.06702418597914       12.19363588196380
H           -3.00638513194096       -1.05676442517005       13.12722339038973
H           -1.36384012489519       -0.82605299587417       12.35716222856878
