40
 energy: -57.249671142220 gnorm: 0.000210128889 xtb: 6.7.1 (edcfbbe)
O            2.07395584243447        0.01668939603842       -0.04933931157164
C            2.79818658593646       -0.77308138639816       -0.59471541921750
C            2.39533268900208       -1.92318844549964       -1.39547031912921
C            3.32007049808068       -2.78296830154688       -1.99293272549596
C            2.87390226856714       -3.85562073766235       -2.73893704977909
C            1.51323482712202       -4.07772876831285       -2.89843464044185
C            0.59039720725968       -3.22440166665509       -2.31110831462656
C            1.02540388545231       -2.15066566373396       -1.56074086755799
O            4.17795904338790       -0.65462970430510       -0.47790606539145
C            4.65138407115407        0.49268706472804        0.15215263754189
N            5.13011552471411        0.10948241892461        1.56380411061701
C            6.25673894302082       -0.83474067104582        1.47626999128946
C            5.55099544156613        1.32179700635069        2.28400832084735
C            4.02198697014985       -0.52795528745210        2.30079784758777
C            5.73184120748591        1.15368777067985       -0.66664875262376
C            6.60410161397143        0.39746499608332       -1.44313164259406
C            7.56424170175492        1.02430505590313       -2.21783759600061
C            7.65897605402607        2.40599143401205       -2.22676510663855
C            6.77936654219626        3.16400831455973       -1.47110236135959
C            5.81441865018200        2.54319837666549       -0.69801872968498
H            4.37686129878036       -2.60192180933518       -1.87538634054459
H            3.58601769644390       -4.52145012787923       -3.20175649927206
H            1.17249972385593       -4.91730752343928       -3.48457913892623
H           -0.46630090857755       -3.39783507185614       -2.44102927701194
H            0.32613826447562       -1.47273444200358       -1.09587433946670
H            3.81111402884863        1.18898414686676        0.30703197081142
H            7.11340887204581       -0.35105398316275        1.01105787856179
H            6.53353517230428       -1.17264383846603        2.47299426071455
H            5.96321584062196       -1.69408595433125        0.87603282374257
H            4.70944963052464        2.00363064517619        2.39394328588484
H            5.91408234592955        1.05150430136123        3.27415415816861
H            6.34855740373513        1.82529118317985        1.74055830935612
H            3.14001754815757        0.11131837020793        2.28784812071027
H            3.76404720557634       -1.48173943743066        1.84380451958754
H            4.32149032087483       -0.70468953448203        3.33197758432422
H            6.51423107308486       -0.67733331372829       -1.46118967125524
H            8.23382756732424        0.43105423323894       -2.82037735810143
H            8.40632800842864        2.89228186328183       -2.83339420046203
H            6.83531257455024        4.24083923765335       -1.49089297757751
H            5.11456676554139        3.14190985380263       -0.13359711499054
