20
 energy: -20.336938597781 gnorm: 0.000610602682 xtb: 6.7.1 (edcfbbe)
N            1.04736710641755       -0.04871990449407        0.04114605458394
C            0.59123284280086       -0.27265667562823        1.44895257034017
C            1.05181870766671        0.87835798162705        2.33148356453262
C            0.51066222277878        2.25847514638616        1.92270416023693
C           -1.01614366479238        2.29436125380174        1.91474027499892
C            1.05216895133908        3.30241587473237        2.89816350103693
H            0.69678939673393        0.87169686321348       -0.26476816025817
H            0.70389413829263       -0.77753169370253       -0.59533343805736
H            2.07497009025052       -0.02734906336272        0.00465773331133
H           -0.49611826185004       -0.34662782357265        1.45012575724549
H            1.00657418085298       -1.21634932509903        1.80377234569740
H            0.71928389074626        0.66743423035815        3.34816282468682
H            2.14314600373351        0.91028976696044        2.35205464684908
H            0.88020222665108        2.52567064565459        0.92207248995944
H           -1.40631714512713        1.96413105908554        2.87360038252934
H           -1.35775376116541        3.31219554510600        1.75079390142104
H           -1.44982958127246        1.67539171723632        1.13162653929796
H            2.13879451954480        3.28705354245672        2.92153204921760
H            0.73341316476338        4.29774125679173        2.60365170982806
H            0.68374497163536        3.11045960244898        3.90193109254244
