32
 energy: -37.894666382854 gnorm: 0.000507828139 xtb: 6.7.1 (edcfbbe)
C           -0.06778961227650        0.31697648904665       -0.08313262821540
C            0.34477853146813        1.01102037055270        1.20936534259918
C            1.46872102093011        2.02628114993901        0.99355234070784
N            1.06838858931177        3.12467594932438        0.11490071927081
C           -0.04244951461667        3.83951479890834        0.31495189073409
N           -0.52331772558341        4.18369270683178        1.52035566830758
C            0.17776385002773        4.17061477084469        2.78143706768020
C           -1.76718251358574        4.93000726483088        1.39099787364861
C           -1.89587128841292        5.14264402843216       -0.12007240321014
N           -0.82283757109717        4.32418952687977       -0.66362596311778
C           -0.87410585771891        3.93876735903353       -2.05172825428584
C            1.92700111950856        3.35159488458174       -1.03451735415690
H           -0.48169130251458        1.02609257210000       -0.79696834247344
H           -0.82658587133276       -0.43251710023513        0.12172548458398
H            0.78359816111421       -0.18157448461261       -0.53982147452817
H           -0.52555197200572        1.49575173670712        1.65539508448560
H            0.70716030438075        0.26448158348998        1.91712463200975
H            1.83615677277356        2.39520152490590        1.95304195550485
H            2.29905777214712        1.52422477917340        0.49592223855104
H           -0.29372313230993        4.89332228510485        3.44382657072750
H            0.12741085175638        3.19153697937030        3.26163527813816
H            1.21933269945961        4.46125894829283        2.64747474261860
H           -1.69944728053323        5.87414548296079        1.93460636893623
H           -2.59800440250755        4.35076938921032        1.80637953150137
H           -1.75713114804619        6.18836796453830       -0.41265004815993
H           -2.85961174948973        4.80404534047604       -0.50572702016276
H           -0.33871355514065        3.00870455546883       -2.21637100793762
H           -1.91655072534851        3.78699002160257       -2.33548485508810
H           -0.45913455622973        4.71790160860215       -2.69491434510392
H            2.95237239755419        3.46419207089937       -0.67735401472530
H            1.90059250489340        2.51526494891109       -1.73488641458066
H            1.65020520342402        4.26815049382817       -1.54568866426004
