43
 energy: -56.468284721993 gnorm: 0.000620951824 xtb: 6.7.1 (edcfbbe)
C            0.35774260214860        0.39249064822552        0.89624299428640
N           -0.11681795579704       -0.97984901584869        0.65152967739891
C            0.02895323755149       -1.77988368254877        1.91108262170877
C            1.40593703951986       -1.86165549532190        2.34951911545408
C            2.54938624592023       -1.94237450297798        2.71999629440077
C            3.88541244518882       -2.03448859304887        3.16909204143603
C            4.33656832044038       -1.19752005405181        4.19107977074571
C            5.64226952576505       -1.29762326906186        4.63065743886805
C            6.50207062596106       -2.22280110195096        4.05864823761013
C            6.05619636673664       -3.05366988351915        3.04214928980874
C            4.75261577586661       -2.96505831129832        2.59396032228493
C           -1.56514844348302       -0.97050797639274        0.24986035867480
C           -1.83326551377178       -0.16687846339787       -0.98226926892231
C           -2.09744193184486       -0.72591682454406       -2.16634248387129
C           -2.39858094218175       -0.04332621697027       -3.41070382062005
C           -2.73373464425220       -0.81483466367224       -4.52739931043330
C           -3.03514242642199       -0.21877437385751       -5.73606116884430
C           -3.00211270584331        1.16107330428473       -5.85540551005178
C           -2.66738530061542        1.93970693360318       -4.75812667301155
C           -2.36874919680717        1.34740317795640       -3.54750006378562
C            0.69139538750684       -1.59629150606296       -0.41321248880053
H           -0.28678315213111        0.88750469065882        1.62097279133930
H            0.35545136832428        0.96017419569890       -0.03111771970829
H            1.37217289461027        0.35907280755818        1.29246637928517
H           -0.35950621661551       -2.78631536942331        1.72723138381861
H           -0.57758313355255       -1.30891219518759        2.69082717211259
H            3.65952460241985       -0.48220918034687        4.63422694528512
H            5.99092717268564       -0.65337853281171        5.42307393612712
H            7.52057988121525       -2.29768875150670        4.40672194393771
H            6.72654675819384       -3.77427070728351        2.59948295627686
H            4.39681968281994       -3.61220976084199        1.80565032989859
H           -1.86706439716889       -2.00822655179314        0.08993321231527
H           -2.13409999457613       -0.56625926908739        1.09141378492421
H           -1.85229478350487        0.90449765148247       -0.85883929946913
H           -2.10809019963527       -1.80827107497821       -2.23703026746628
H           -2.76257437200040       -1.89151162722857       -4.43978631103402
H           -3.29487596235532       -0.82962875705569       -6.58685321398719
H           -3.23621787547826        1.62912439140333       -6.79882661687579
H           -2.64061480454036        3.01482007065897       -4.84876115918973
H           -2.11289379340150        1.97231077194571       -2.70565853752311
H            0.57340293801920       -1.03439096363266       -1.33797438790776
H            1.73970620904395       -1.60286585235715       -0.11912267357094
H            0.36732866617035       -2.62195611547534       -0.58094802302491
