36
 energy: -56.301322007940 gnorm: 0.000743979740 xtb: 6.7.1 (edcfbbe)
C           -0.22904871329441       -0.92814376811493       -1.92049642047244
O            0.61483463230677       -0.06299070511473       -1.16962233188176
C            0.76829093244645        1.23705860712205       -1.55652346583709
C           -0.27753648656816        2.00698209898459       -2.11279153917267
O           -1.50158085100053        1.41880115296773       -2.17614159834914
C           -2.55933615806791        2.10107910337732       -2.81800559991458
C           -0.02486114466025        3.30773381464681       -2.53002774937910
C            1.23391253527114        3.87232988429200       -2.38966996105783
C            2.24832165190170        3.14676651109057       -1.81502305787084
C            2.03122669970322        1.83077487019552       -1.38211406387765
C            3.20638321587385        1.15513842147537       -0.81020783316957
O            4.33746183695412        1.50312015920993       -1.03585515592320
C            2.97291516012888       -0.01292003284705        0.17677925494339
N            2.00605293156239        0.32769991881878        1.18411848442734
C            0.94675230951978       -0.42080309656488        1.59099593624757
C            0.28383205138450        0.29732620155717        2.53976898480103
N            0.95156816620486        1.47417756631022        2.69784793842597
C            1.98873818945409        1.47145957100526        1.86476569683004
C            0.57983332021436        2.53227774748974        3.59776745698109
H            0.13237051832709       -1.93613612377596       -1.71647977200924
H           -0.15242502276789       -0.73006102847587       -2.98935111483380
H           -1.26952319530115       -0.84003898074760       -1.60693528669702
H           -3.40067891254343        1.41103091736138       -2.79745870852321
H           -2.82940628705502        3.01526934228835       -2.28223679025224
H           -2.31208468962817        2.33901155836719       -3.85528206079925
H           -0.81605359382551        3.89458024464883       -2.96625711415975
H            1.40673023944266        4.88057796579945       -2.72920189562838
H            3.23493053636826        3.56369429408054       -1.68942255410529
H            2.62501049476070       -0.88701079302198       -0.37501471358416
H            3.93936046954713       -0.23963295102191        0.63974307706593
H            0.73580769052754       -1.38922787758152        1.18778874460698
H           -0.59597242613119        0.05504687438592        3.10057664848750
H            2.70693503546015        2.26217844193170        1.76059924292074
H            1.39851811008233        3.24158036579694        3.69454527205874
H           -0.30063931853135        3.05620135910162        3.22221894661148
H            0.34479007193243        2.12009836496945        4.57862310309695
