34
 energy: -51.442329143674 gnorm: 0.000623327707 xtb: 6.7.1 (edcfbbe)
C           -1.30032954810600       -1.12555123219765       -0.25361977676905
N           -0.57879922572572       -0.11006077333076       -0.97117125294571
C            0.01672496403358        0.98095255991341       -0.41121137839971
C            0.59142091816302        1.69165711042355       -1.41834991860456
N            0.32384314323669        1.03343120882710       -2.58222416335970
C           -0.37174141482992       -0.06432630150317       -2.28369440772936
C            0.90023624839886        1.28751676556506       -3.86783195055477
C            1.80055585750014        0.06751804368403       -4.23860764488092
O            1.71020936836770       -0.92904627956101       -3.55402186993496
C            2.67036941979909        0.21575547527104       -5.39128020075164
C            2.66035306503945        1.35520659462616       -6.23634892103409
C            3.50119483181225        1.42128657133691       -7.30625935149577
C            4.40225396628062        0.37255733397019       -7.60290187203014
C            4.41748133559674       -0.77705918828340       -6.76268559811365
C            3.54125237284400       -0.82727309519573       -5.67085567146078
C            5.31206195871089       -1.83181361645206       -7.05435192178926
C            6.15106792453675       -1.74857305328903       -8.13020324563915
C            6.13464930282051       -0.61348260154331       -8.95799636093501
C            5.27987462624035        0.42558649207197       -8.70116088572696
H           -1.56696753666428       -1.93473827296258       -0.92932904900411
H           -2.20936208459586       -0.70724480827495        0.18119981803503
H           -0.68156900747148       -1.52345561682335        0.55082375423883
H           -0.00456248083680        1.17134392042428        0.64232659990852
H            1.15483108802131        2.60165344502341       -1.38599144723140
H           -0.72718628716932       -0.78558070478169       -2.99273968356940
H            0.12181580191646        1.37734728193625       -4.63067292001178
H            1.48462409074006        2.20620756028609       -3.82863376477304
H            1.97943232790827        2.17025677872635       -6.04904558629501
H            3.48988492537001        2.28666472264462       -7.95189413305746
H            3.54121006016658       -1.69339920019260       -5.02475478152858
H            5.31772110697675       -2.70048939385394       -6.41314274770492
H            6.83316589280037       -2.55472754914918       -8.35231728844091
H            6.80503118565212       -0.56679246802490       -9.80260424456391
H            5.26855180246533        1.29809229067748       -9.33717813384944
