120
 energy: -148.442151615542 gnorm: 0.000486099873 xtb: 6.7.1 (edcfbbe)
C            0.43867433411785        3.82074786856591        2.60335409609612
C            0.80587952204650        4.77532858363330        1.47316840873044
C            1.22004375301506        4.05894454187176        0.18718165275708
C            0.13776700755742        3.17876682246093       -0.44159890894506
C           -1.16777034444227        3.89741431528110       -0.79156872392009
C           -1.02514863757796        5.06284900166793       -1.77339637435175
C           -0.60986564627624        4.65208234106947       -3.18776933840387
C           -1.73844642224193        4.00043102536063       -3.99209445938529
C           -2.72784201753928        5.01265472359487       -4.57742402522993
C           -2.22317858031416        5.69698141969903       -5.84898852783237
C           -2.26215031050882        4.79442272888676       -7.09026472133733
C           -3.69782331979909        4.55744552428709       -7.51326513819275
O           -4.33524906944632        5.41333328659929       -8.09400019488495
N           -4.29724540448376        3.37771573370489       -7.21452601770427
C           -3.81596758398959        2.17607254321924       -6.58346493072575
C           -4.11113728758520        0.94263277581365       -7.44396038946384
C           -3.48388223654530        0.99772454814167       -8.83903576371110
C           -1.95961460983844        1.13441002172829       -8.86894016549832
C           -1.23747919741890        0.09054935227582       -8.01259757987175
C           -1.61207332040741       -1.32387718871084       -8.46493640395530
O           -1.47910023481021       -1.74698794836405       -9.58027087384246
O           -2.04814150423633       -2.04653426640545       -7.42779029014915
C           -2.37885153321043       -3.41368042515524       -7.67583653087182
C           -3.83036509630917       -3.56324677774082       -8.12536525598439
C           -4.16051330663199       -4.99521077079841       -8.54325880140121
C           -4.06829099579099       -5.99053597739120       -7.38805199642616
C           -4.55412481126854       -7.39241318254851       -7.76116122813264
C           -3.77546892691478       -8.06337779044594       -8.89559854919679
C           -2.26521549949849       -8.16691258777284       -8.67322693076003
C           -1.84653804496938       -8.92756065617821       -7.41298000550701
C           -2.32534247101036      -10.38010991529939       -7.34391924330207
C           -1.86684033373550      -11.26798728685030       -8.50137859811578
C           -0.34549023460606      -11.44032719996553       -8.59689283722010
N            0.17754656819058      -12.14843900128746       -7.45086344576450
C            0.61550003536405      -11.58726415628263       -6.29149246628886
C            0.95563484966482      -12.60309643223749       -5.44990704895741
N            0.71538970064777      -13.77065400741328       -6.10817812292432
C            0.24289328939418      -13.47041776785563       -7.31486658168958
C            0.94917233486382      -15.08751846538313       -5.58006460454922
N            0.19514387360573        0.24009902156827       -8.14765123225474
C            1.16591297747363       -0.18220284673234       -7.28996101490919
O            2.32596027421462       -0.19440257974817       -7.63980519776166
C            0.72506314134217       -0.55950261894312       -5.88974667951354
C            0.45124638075919        0.69675075011651       -5.05099745962859
C           -0.33889806714432        0.39382485305522       -3.77827177235549
C            0.42595110791851       -0.47862956884424       -2.78607288443726
C           -0.37735148339497       -0.70978610083525       -1.51179210103551
H           -0.45756115618336        3.25430234764295        2.36364187826886
H            0.25102251787697        4.37685751846232        3.51900656528822
H            1.25036960572660        3.12019031527733        2.78919355662522
H           -0.03432565675277        5.44203130985627        1.27257761712945
H            1.64327129493159        5.39803092474003        1.79729458576542
H            1.54498799684982        4.80553588667471       -0.54016365746898
H            2.08372971601427        3.42472967751124        0.40495130266672
H            0.55604131273773        2.72381997597680       -1.34265933608598
H           -0.09849897226003        2.36386962461479        0.24656162548133
H           -1.86170509772467        3.16000464385721       -1.20404035819181
H           -1.61982587262907        4.27687343343367        0.12650130666473
H           -1.98171125110324        5.58788909078512       -1.82252831156694
H           -0.29261692985354        5.76919076064527       -1.38109515577884
H           -0.26133845759697        5.53777100852867       -3.72217638362325
H            0.23415840380639        3.96293693592462       -3.12736546699592
H           -1.29677425398963        3.41719562725764       -4.80214123087118
H           -2.28029112911092        3.30321295871263       -3.35021919263554
H           -3.67565402161818        4.51727033507955       -4.79654767131881
H           -2.93198187296472        5.77897733265639       -3.82797737225365
H           -2.84236803211464        6.57166899705402       -6.05537180233255
H           -1.19863152893034        6.04159418150769       -5.69758433656182
H           -1.77892219291699        5.32369365310350       -7.91367303110971
H           -1.71661761782406        3.87065439593386       -6.90885707386591
H           -5.26559965541188        3.34467219096755       -7.50915466037658
H           -2.74725745425798        2.26258511440464       -6.40027262343197
H           -4.30886258472523        2.04867488866341       -5.60986809805361
H           -3.77181570809673        0.05312801477664       -6.91086192985508
H           -5.19354030500232        0.85479936619418       -7.56541854298700
H           -3.76716198972413        0.08979824048572       -9.37599475024168
H           -3.90476294949662        1.84517818401304       -9.38301712898780
H           -1.62827558320743        1.01798834061402       -9.90289754763477
H           -1.66038338357058        2.12791189594036       -8.53402892531742
H           -1.51347949492504        0.20041814942237       -6.96349719948090
H           -1.70550755813722       -3.80083108875535       -8.44828672055089
H           -2.19745996788901       -3.92303679345098       -6.72792073470320
H           -4.49203062209017       -3.24219091095025       -7.31841219389479
H           -3.98923154440006       -2.90040105889526       -8.97840217553487
H           -5.17610241232197       -5.01235387276893       -8.94319638486132
H           -3.48148646533464       -5.28779301735001       -9.34548052403294
H           -3.04049754957275       -6.04476138245755       -7.02760930867236
H           -4.68524673055632       -5.62741620562507       -6.56296858677833
H           -4.51581197975187       -8.02182380035404       -6.86912627956570
H           -5.60096404945561       -7.33101777851389       -8.06573926700491
H           -4.19292875816377       -9.06029824094017       -9.05336089512105
H           -3.93938024988291       -7.50357909858506       -9.81718517912416
H           -1.81924971281410       -8.63685796560064       -9.55299737213593
H           -1.84640622594904       -7.16173846735601       -8.60990518821302
H           -0.75642981933550       -8.88568081731381       -7.33841360133068
H           -2.24079140682550       -8.40849678477193       -6.53879330746879
H           -1.99794866630675      -10.81399630006523       -6.39428394509295
H           -3.41510019001524      -10.38787851662754       -7.33483428660197
H           -2.32925759904728      -12.25249183610169       -8.40073303322513
H           -2.20756635002055      -10.84061386364773       -9.44321644891121
H           -0.09657471009133      -12.00831726453485       -9.49545027486287
H            0.14042560623144      -10.46573595452235       -8.65076478519968
H            0.66526002308008      -10.52791543090135       -6.14385888140906
H            1.34351027284165      -12.57292652306384       -4.45217992053007
H           -0.03456639670296      -14.18324099701719       -8.06713707043421
H            0.64630853623971      -15.83797832113137       -6.30654384659009
H            2.00797117783840      -15.21818062589480       -5.35306308606953
H            0.37925790002381      -15.22893160749936       -4.66121931163392
H            0.52527483693896        0.41171715902410       -9.08968532402139
H           -0.16399781005034       -1.19070436694642       -5.92893666866390
H            1.53795574065955       -1.12959966356628       -5.44035669206350
H            1.40312202172125        1.16270246865489       -4.79196695125834
H           -0.10724612019681        1.41960446106380       -5.65073613367626
H           -0.59100390899241        1.33760044507735       -3.29072745461513
H           -1.27798164270428       -0.10037197403615       -4.04382421353131
H            0.65796858323634       -1.44217590680326       -3.24325669730558
H            1.37090280794940        0.00777999717073       -2.53577692314549
H           -1.31282670114247       -1.21894805921574       -1.73589788557963
H            0.18588209329762       -1.32017668713185       -0.80991565473115
H           -0.61079476504526        0.23728506686219       -1.03189418384010
