24
 energy: -38.864482332598 gnorm: 0.000728234609 xtb: 6.7.1 (edcfbbe)
N            1.38285046718285       -0.67134573589586       -0.01571455172126
N            0.59492078651212       -0.76040171924580       -0.91128760473478
N           -0.28229497966305       -0.91559145221784       -1.58593759005966
C            2.74284587476847       -0.23298979855707       -0.12197213434464
C            2.86660218498046        1.22696478000698        0.33514203089851
C            2.19087661804810        1.49544755969424        1.68750960098719
N            2.74600257314916        0.69105032795297        2.74715365081175
C            2.38652495487740       -0.55606849103749        3.05290187679327
N            3.15273754448185       -1.00327764994911        4.04099059053600
C            4.03168600530102       -0.01683968339137        4.37461867200899
C            3.77827873671813        1.04571728215041        3.56202444375411
C            3.08682470628167       -2.30073135854332        4.65774979465903
Br           4.78564485400523        1.69296321143567        0.43743927125513
H            3.34914049362917       -0.87746398162331        0.52340126569727
H            3.12712471963801       -0.32496703997785       -1.14366032623387
H            2.42810101719283        1.90052087516901       -0.40435278376995
H            2.31185072919838        2.54847239353652        1.95112504588684
H            1.12510799466394        1.26873272794739        1.59169864545464
H            1.59609847369726       -1.10086961346205        2.57146690098502
H            4.76223058868080       -0.13209246490514        5.14917871241315
H            4.25563701653829        2.00306935821090        3.51204975809008
H            2.21080178653936       -2.83818611673436        4.30177272545101
H            3.98138817853917       -2.87735003550521        4.41681276194738
H            3.02718867503822       -2.19552337505754        5.74101924323687
