23
 energy: -31.149473757482 gnorm: 0.000345187195 xtb: 6.7.1 (edcfbbe)
C            1.34374018448790        0.76636940989894        1.37820902101432
O            0.79022550107058       -0.27247618003544        0.59664721382565
C            1.16904528222045       -1.55667760581345        1.02116740649206
C            0.40092519828673       -2.57187817748209        0.16471882214826
N            0.68540017571401       -2.35072277990666       -1.23218602087116
C            0.15720362079317       -1.34599280390533       -1.98221061544808
C            0.73566149669844       -1.41489203414563       -3.21304583427736
N            1.61011329693522       -2.45971881531637       -3.19339336518250
C            1.56647067098224       -3.00774522457391       -1.98257636883881
C            2.42347309309782       -2.88410989259451       -4.30077269285731
H            0.97586824499856        1.69590948286681        0.95217294706353
H            2.43731466620740        0.74957909098601        1.33705657414230
H            1.02306954138144        0.68749827098975        2.42084128153338
H            2.25554794716491       -1.69790428694888        0.90348519545505
H            0.91386672037633       -1.71635251158475        2.07783466243210
H            0.68258206241816       -3.58802214037472        0.44170571296919
H           -0.66946686506938       -2.42748657815764        0.32430939700234
H           -0.56029858928160       -0.65766301376616       -1.58556469874099
H            0.58667171175689       -0.80617234650084       -4.08149531249168
H            2.14367912192789       -3.85454146236370       -1.66448112058805
H            3.04643231983801       -3.72479530027694       -4.00439667484736
H            1.79134547982771       -3.18620305235886       -5.13665359496714
H            3.06263911816645       -2.06444204863520       -4.63060193496666
