30
 energy: -41.552919640248 gnorm: 0.000656754939 xtb: 6.7.1 (edcfbbe)
C            2.24697325849328        0.46793513838078        0.84059572980900
O            1.17275631172331       -0.14449684953122        0.15391385063755
C            1.32414926238880       -1.54870287488943        0.03933433105060
C            0.07197227728290       -2.15421845612136       -0.59323333446064
O            0.02134155505502       -2.01925059612172       -2.00668717342903
C           -0.14036927855689       -0.73470425343831       -2.49245573154399
N           -1.54467541368738       -0.32043914656899       -2.40071935068583
C           -2.07701390371951        0.65497762989176       -1.65171705089677
N           -3.40180506982272        0.64804650011198       -1.84291568959214
C           -3.71435797612838       -0.35885792129539       -2.71375580324079
C           -2.55364020038833       -0.96610352834376       -3.06174751649091
C           -4.35116905156076        1.55075998854764       -1.24444754246474
C           -1.34106865376518        1.59072431683636       -0.78165318023378
H            2.02886863741759        1.53288251822243        0.87591891485111
H            3.19173195892302        0.30357890642422        0.31438817551188
H            2.33183281578921        0.07616847172353        1.85818413484999
H            2.20152438526832       -1.78723903678140       -0.57629266277487
H            1.46637615314304       -1.98684162738437        1.03557808700743
H            0.07013715350554       -3.23141243072878       -0.42569766100122
H           -0.82043186859743       -1.71580367162351       -0.12905928261218
H            0.47330061470228        0.00192023756305       -1.96407985008979
H            0.13045352606341       -0.76831073795738       -3.55307545854573
H           -4.72033260729673       -0.56339068261028       -3.01676738811698
H           -2.35983379908979       -1.79735099916656       -3.70739931793694
H           -4.37513953270779        1.42210719284669       -0.16133121009758
H           -4.09187596547917        2.58458637448689       -1.47368449579276
H           -5.34088457858435        1.34008828729214       -1.64220537440656
H           -0.52130385170416        1.08111470687562       -0.27462338594284
H           -0.91471374934870        2.40361215504688       -1.37078441543748
H           -2.00301240931263        2.02325038831108       -0.03727034792831
