29
 energy: -38.806467951234 gnorm: 0.000305450901 xtb: 6.7.1 (edcfbbe)
C            1.04588964745740       -0.35883261351312       -0.35793646436534
C            0.26346085528162        0.18458373566902       -1.27037330831706
C           -1.22079692102644        0.34435478191783       -1.10983802510636
N           -1.63713497160138        1.71489512425415       -1.33798410948079
C           -0.92287702973239        2.80157923539342       -1.06546085418193
N           -1.57879886161129        3.90903056711461       -1.39329828376900
C           -2.80510413931667        3.53445745678630       -1.90244643810941
C           -2.84263108033182        2.12649371240138       -1.86771358397787
C           -3.95389952943045        1.42324621374742       -2.31892893774356
C           -5.00889717325794        2.16702878194329       -2.80413570143453
C           -4.96967649255919        3.56455640406531       -2.84285693786718
C           -3.87484706559479        4.27334475958157       -2.39519293239208
C           -1.12634129895135        5.26779940173344       -1.18904010322335
C           -1.71283906946011        5.85170896833793        0.09258215918487
H            0.66451609478932       -0.71385803509485        0.58496173261757
H            2.10069683310497       -0.48620841806112       -0.52375659545127
H            0.66006458219146        0.52369204293778       -2.21784417514509
H           -1.74032596585219       -0.28210246162266       -1.84111425200050
H           -1.53189052511262        0.03414533436267       -0.10664399781621
H            0.06370501162120        2.77987660939314       -0.64103774276849
H           -3.99585302152929        0.34690385131592       -2.29054513506630
H           -5.88943380089376        1.65977256779379       -3.16442057487990
H           -5.82058014877318        4.09943373736396       -3.23313020989504
H           -3.85326036938816        5.35009758994799       -2.42747582166750
H           -0.03589899883645        5.26250240184771       -1.13899494028548
H           -1.43482742379996        5.86118020925113       -2.05252825648342
H           -1.38655914840939        5.28416477018263        0.96056877080544
H           -1.37682920523869        6.87754828630142        0.20784417171937
H           -2.79929078373908        5.84662498464733        0.06062054710059
