40
 energy: -46.094373203926 gnorm: 0.000357899939 xtb: 6.7.1 (edcfbbe)
C            1.77677611154320       -0.34950729771604        0.55416252129859
C            1.08792322018310       -0.11595702563165       -0.78518967720658
C            1.79456240269291       -0.80232637877045       -1.95531154590829
C            1.87452072283880       -2.32768888668653       -1.86150783911732
C            0.52335791474586       -3.03897542661427       -1.76069028159092
C           -0.36717659822194       -2.77585713144953       -2.97434717249975
C           -1.57861460146822       -3.70543684400466       -3.05211351072423
C           -2.54483302972336       -3.48571869753349       -1.88279372510813
N           -3.75152132654978       -4.26469279385967       -2.05388795186819
C           -3.93703770088423       -5.51815689538624       -1.54446945240403
C           -5.15152529329510       -5.95502704383800       -1.96576678160783
N           -5.69092283892610       -4.96442590827239       -2.73299803006605
C           -4.82643855453119       -3.94156121556096       -2.78190626143254
C           -5.06790300927401       -2.69111615877138       -3.52787383486971
C           -6.97565050025738       -5.00108370493648       -3.37867826604643
H            1.72289953894144       -1.39405584777761        0.85052151424069
H            1.30306956171786        0.24700865220811        1.33020267614818
H            2.82360248582405       -0.06253071185662        0.49554123751063
H            0.04895755165874       -0.44914239078285       -0.72418586055671
H            1.06968726339293        0.95728621162746       -0.98742430608551
H            1.29367141582356       -0.52154111787266       -2.88429825488761
H            2.81512958740169       -0.41897122180060       -2.01320987681239
H            2.39913340764963       -2.69576536286863       -2.74609932176450
H            2.47398680643066       -2.60182080715465       -0.99286189197744
H            0.71088634897479       -4.11296400408681       -1.68363014142284
H            0.01904240387207       -2.72226502567391       -0.84684201132624
H           -0.70958561637902       -1.74018307387646       -2.96440702012114
H            0.22473394070451       -2.91992538850226       -3.87959043976406
H           -2.10739537851268       -3.52329954296588       -3.99051538717301
H           -1.24352004401392       -4.74437166881126       -3.05183529785117
H           -2.07835302279075       -3.79668443962716       -0.94762448497540
H           -2.80524674060346       -2.42817444553210       -1.80342634259300
H           -3.20690677327786       -5.99863818262765       -0.92676433470513
H           -5.65808085529185       -6.87886135920511       -1.77756731967162
H           -4.28293964523026       -1.96393239048126       -3.34746558244254
H           -5.11004387140714       -2.89005527648988       -4.59953387506631
H           -6.02359556481418       -2.25447976374249       -3.23832595714037
H           -7.63247440055561       -4.23316443837925       -2.96692607922085
H           -6.86858320193866       -4.83064816066198       -4.45044967444726
H           -7.43074211643300       -5.97541883404181       -3.21871015872507
