35
 energy: -55.129071242346 gnorm: 0.000522261989 xtb: 6.7.1 (edcfbbe)
O            2.65611421701841       -0.77138365084243        1.56874534885335
C            3.49491572281967       -0.40519511762370        0.76596250659771
C            4.21431604985333       -1.32540618218106       -0.10686222331228
C            4.28233983356901       -2.66971100337253        0.28245066552605
C            4.94536014427922       -3.59160447018239       -0.50092147597635
C            5.53048137250459       -3.19153685441340       -1.69328302881238
C            5.44451739488383       -1.86801688045944       -2.10268863957917
C            4.79896692966877       -0.93471929535670       -1.31646394496294
C            3.81853579218999        1.10241871875205        0.68942864737009
N            2.75534217172295        1.84548517302916        0.04417629605892
C            2.88332510055710        2.66406133369174       -1.07684858782185
C            3.96010988723849        2.95862469221100       -1.89477388259309
C            3.73947716314174        3.83518391021631       -2.94433292301585
C            2.49124002864197        4.40487308717684       -3.17302640608755
C            1.41070907340203        4.12542637920936       -2.35401052028104
C            1.62954990056978        3.25020717341999       -1.30640667886650
N            0.78278960963899        2.76817712783487       -0.31056700163276
C            1.48452742371666        1.92922458143823        0.48465140705978
N            0.98166855627351        1.34003740897616        1.55636191396637
N           -0.56125739310945        3.02898745033907       -0.08573955682122
H            3.82136945239827       -2.96108638791183        1.21390553445124
H            5.00447074681366       -4.62165853888853       -0.18674228394860
H            6.04753821138397       -3.91089394018442       -2.30922181608100
H            5.88384792983481       -1.56510534037672       -3.04057212097691
H            4.71267908617630        0.08147444970517       -1.66991704696737
H            3.92868643309916        1.45786631276084        1.72151579496640
H            4.74721010395527        1.28920913837353        0.15542409031204
H            4.94016401181831        2.54149339603432       -1.72937023456812
H            4.55888181052637        4.08450859412543       -3.59893275133984
H            2.36338369143805        5.08193338686854       -4.00184046701718
H            0.44574323826144        4.57406304185325       -2.52732687537087
H            1.47724561953754        0.54160690048736        1.96275115509921
H           -0.00531446588387        1.45888534930990        1.72763122268475
H           -1.12393953786604        2.78710035852194       -0.89818982943234
H           -0.71608531006501        4.00820969745404        0.14462371252629
