30
 energy: -33.913299932980 gnorm: 0.000302733803 xtb: 6.7.1 (edcfbbe)
C            1.42096542149492        0.28938942866854        0.60523723876043
C            0.85255469538055        1.66781777023637        0.92355529737126
C            1.02810078916589        2.67408301930994       -0.21771469494348
C            0.42792428034094        2.33509070171167       -1.58468653313534
N           -1.06995485223307        2.34094839897467       -1.73486619268841
C           -1.66753630107762        3.45301480533048       -0.97271789570328
C           -1.37695638555481        2.54531197740578       -3.16422000899618
C           -1.67941468730971        1.06308888219507       -1.25726861099499
C           -1.56917405954230       -0.14068265205841       -2.20043720065248
O           -0.22200356017087       -0.37508187432384       -2.54113444592680
H            0.92296664299347       -0.18009977401285       -0.23900655666155
H            1.31274915557204       -0.36315392902347        1.46695278291536
H            2.47972942274964        0.36616371527608        0.37312510312628
H           -0.19338866102927        1.58911247183247        1.23087893153529
H            1.39057498650942        2.06943473401816        1.78403331459057
H            0.69693688415073        3.65784534983582        0.11638926229622
H            2.10108709205854        2.75771245304100       -0.40704903187922
H            0.80851018049982        3.07927425721772       -2.28683655692637
H            0.77407205888605        1.35339071955944       -1.90610751288611
H           -1.16054659622989        4.38432899700796       -1.21842226017035
H           -2.72146124529639        3.55541936292084       -1.22664199959305
H           -1.58255741414664        3.27328447901641        0.09634662993543
H           -0.82719723306112        1.82669533433979       -3.76820803334517
H           -2.44510627955140        2.42707170435989       -3.33881446156895
H           -1.08624854164883        3.54965605508527       -3.46663115063848
H           -1.20263844323409        0.80574774463785       -0.31361791650116
H           -2.74311397370182        1.23514204575129       -1.08091630486359
H           -1.98966752043613       -0.99455368623714       -1.65418413946352
H           -2.17417829475760        0.00696596214450       -3.10447925388296
H           -0.13288756082062       -1.23755845422159       -2.95971779910946
