38
 energy: -50.216496324814 gnorm: 0.000258944864 xtb: 6.7.1 (edcfbbe)
C           -0.96329129859725       -1.51539821546539        1.17687882215489
C           -0.74622925025865       -0.70457714832009       -0.09445146857046
C           -0.20038613968538       -1.58326444588201       -1.21850545762386
C            0.09509235125618       -0.78807988071086       -2.49656348142718
N           -1.14248442353565       -0.32238680621400       -3.10541954287262
C           -1.90043102356926       -1.25887315545429       -3.71413866142087
C           -3.17542696504407       -1.01040216992230       -4.14405253311789
C           -3.72134028410586        0.25778776190523       -3.92175010714263
C           -2.92907795872642        1.22080410154639       -3.34493882036392
C           -1.60953578435768        0.93694216479263       -2.96287385293122
S           -0.75110275921816        2.29243774230323       -2.26668077810760
C            0.97944779866703        2.31528747820694       -2.92724941143137
C            2.02539172708451        1.81615124519773       -1.97700734506612
C            1.98475021337884        2.17560047997592       -0.63408512144168
C            2.96942699290911        1.74094341865175        0.23385644407788
C            4.00754792157585        0.95125900021349       -0.23373936124012
C            4.05840597306915        0.59726262882838       -1.57142181577106
C            3.06951254046565        1.02234562780345       -2.44148221350084
H           -1.67714560944226       -2.31737742188251        1.00550329717165
H           -1.34772232216400       -0.87939914584995        1.96876885355175
H           -0.02768172341670       -1.95391041701977        1.51365002938794
H           -1.69545297271758       -0.25344913003590       -0.39672449971072
H           -0.03857366249372        0.10216757856268        0.10907613158807
H            0.73813773640230       -2.03394384268812       -0.89324660749121
H           -0.90392298322545       -2.39166120335511       -1.42775702139629
H            0.73092989022824        0.05198315854353       -2.23177424789979
H            0.62246822781469       -1.41702455320194       -3.21705743427633
H           -1.44256768807465       -2.22900598251874       -3.83689737697774
H           -3.74204812635681       -1.78535299826400       -4.63257740962754
H           -4.73285597783256        0.48251474725232       -4.21963362129735
H           -3.29091269978721        2.22474022210348       -3.18834558358275
H            0.98745966690665        1.79394649964592       -3.88314418625633
H            1.11835338558078        3.38342492249995       -3.11149658323444
H            1.17710867165505        2.79717727349431       -0.27342919783805
H            2.92901866763668        2.02473112559697        1.27380390626328
H            4.77825311874714        0.61710140562844        0.44264390705678
H            4.86967251100503       -0.00961710771214       -1.94188948054228
H            3.11651225822810        0.75073504174388       -3.48655816908962
