32
 energy: -41.431690492795 gnorm: 0.000991603869 xtb: 6.7.1 (edcfbbe)
C            2.03680439684799       -0.59057120830073        2.08315076116376
C            0.74270360850756       -0.42508614443398        1.34717034349818
C            0.44987080751925        0.67570413256371        0.66894070660877
C           -0.27082300418360       -1.53728498536821        1.51663314790340
N           -0.37237747298380       -2.49229317111481        0.35676928569125
C           -1.30954033091423       -3.57710859455660        0.74861882920017
C           -2.62543488950149       -3.24818388615330        1.05669172671619
C           -3.51475708369631       -4.24389372035990        1.42368708491787
C           -3.11698559617870       -5.56437954401287        1.48742154687304
C           -1.80236158093369       -5.89737513083568        1.17911706125469
C           -0.89915959187667       -4.89500300020705        0.81082109049300
O           -1.32753933766563       -7.15053701634036        1.21189265022585
C            0.97459993210032       -2.99178166218464        0.02863172175939
C           -0.90323456598074       -1.82830773573654       -0.85097694955253
H            1.85419250739781       -0.50015674117416        3.15319162159686
H            2.74106989812453        0.18550440984809        1.79894048301737
H            2.49756390213267       -1.55986509630789        1.91113901425841
H           -0.50651427149036        0.84335734287986        0.20385988739751
H            1.16115003194747        1.47705432308009        0.57491436741677
H           -0.01550653887902       -2.13646249392925        2.39377030525461
H           -1.25829645613457       -1.10337526771785        1.67544209826065
H           -2.98324767280291       -2.23274251508543        1.01996702187142
H           -4.53230995919113       -3.97966662256805        1.66179844873041
H           -3.81920134087684       -6.33273718101053        1.77368925900917
H            0.09883113278349       -5.22752749433373        0.58787771242261
H           -2.00864094201298       -7.78409653682220        1.47310489324253
H            1.41890162939633       -3.48175876200495        0.89230165325266
H            0.92415225793525       -3.69209698650740       -0.80270264623376
H            1.60059979586047       -2.15053467491917       -0.26375284663050
H           -1.86881938691434       -1.37235164504714       -0.65062626861409
H           -0.20963892952847       -1.05872745830144       -1.18371012339169
H           -1.02652094880017       -2.56722493304144       -1.64108388761366
