42
 energy: -67.954885942409 gnorm: 0.000573490459 xtb: 6.7.1 (edcfbbe)
C            1.06663335339468       -0.84439763244548       -1.03235276268199
C            0.25619805329352       -1.68240587437877       -0.03379895471672
C            1.12839357780765       -2.49333178981161        0.84439177986852
N            1.37790842250326       -3.79823893757067        0.67722122842959
C            2.23935477700617       -4.23750405370850        1.63950190694207
C            2.52380745366031       -3.15835426090648        2.41263809384962
N            1.83538695486814       -2.08984742397062        1.91004607516521
C            1.92313603817009       -0.74860664581248        2.40399309276261
C            3.12119734288878        0.10537046137167        1.89124455580583
O            2.99569896144659        1.29703793055778        1.87849907317813
C            4.38478621586513       -0.59917036531774        1.58757920037661
C            4.49880235502829       -1.63262092942582        0.65864148074021
C            5.72134096204944       -2.23221196928908        0.42757751637328
C            6.84412448667895       -1.81345908632099        1.13170532252884
C            6.74897012482007       -0.76402585442897        2.03887457942354
C            5.53067503692615       -0.15282808754231        2.25030999289986
Cl           8.35638199201806       -2.58110860010012        0.86034315414425
O            0.88617219808644       -4.52291163051018       -0.35548921175436
C            0.18327023992530       -5.70124971421296       -0.02616595455712
C            0.12270097785269       -6.65590670441046       -1.02845202205101
C           -0.58842450229387       -7.81996380912686       -0.80111448458689
C           -1.21867190547545       -8.02661402768740        0.41585986945007
C           -1.14759107673277       -7.06308254147190        1.40612928758966
C           -0.44626856176830       -5.88690063492078        1.19176843358033
H            1.71550700507146       -0.13533820044311       -0.52427889039456
H            0.38251900269169       -0.28600472792332       -1.66351227984565
H            1.66981902320530       -1.48471681699428       -1.67073563957439
H           -0.36473979894315       -1.02056351634441        0.57370141282382
H           -0.39818721073460       -2.36056618565164       -0.58510698678896
H            2.56773906581492       -5.25496292351406        1.69507303823265
H            3.15824169288660       -3.07791321708778        3.27107747180128
H            1.00678601536909       -0.19836762371071        2.17937062425785
H            2.04381590467902       -0.77753570085139        3.49211241554424
H            3.65405559465437       -1.93144894374231        0.05775978231880
H            5.81234847195977       -3.01765734977675       -0.30522559241604
H            7.62721551583177       -0.42362732895359        2.56297867046275
H            5.44959914748047        0.67264731814704        2.94049610707623
H            0.62040223461233       -6.47025628434407       -1.96587135896054
H           -0.64408665284445       -8.56759474395014       -1.57576323463063
H           -1.76707032617908       -8.93793123044737        0.59147885654448
H           -1.64162988699027       -7.21677379923852        2.35229481429158
H           -0.40464827660927       -5.13488654369648        1.96672953652053
