29
 energy: -72.307492053454 gnorm: 0.000450094042 xtb: 6.7.1 (edcfbbe)
F            0.67200119124941        0.60116035740390        0.33846918501922
C            1.96178517016112        0.26258335106768        0.55368467534251
C            2.01070823221652       -1.07234585416932        1.35030156246364
S            2.16223336722759       -3.73234369038053       -1.42565700595817
F            1.37476787548286       -2.39942113858163       -1.97519646267295
F            0.90387346817037       -4.66875582767409       -1.96848860608050
F            2.98683763835396       -4.03784316606465       -2.77368452933300
F            3.41927532448655       -2.62954233227009       -0.99168106327677
F            1.49196249062775       -2.09053473569322        0.63846837373261
F            3.26794912169539       -1.38908501185769        1.63367049632136
F            1.33309751507911       -0.98809687276025        2.48042546376970
C            2.75058443122514        0.23518199203586       -0.74867249436364
C            2.53903421896034        1.51027568534266       -1.57347758566406
N            2.94889785067339        2.70834853364509       -0.85369787675456
C            2.02948126359887        3.51998606977752       -0.32075529906964
C            2.39987709155226        4.62716940869684        0.41520331967932
C            3.74849610797111        4.89729045859364        0.60475571735195
C            4.68741168819147        4.04387346610595        0.03689547694883
C            4.25476080446563        2.95488194392056       -0.68839147673582
F            2.45143544385181        1.22802576816713        1.38678675150259
H            3.80104077332420        0.06769395681657       -0.50476073375565
H            2.40581115927184       -0.60574441715092       -1.34948160077126
H            3.12249101002685        1.42378068340237       -2.49267264316367
H            1.48299454359431        1.59734523271771       -1.83767083843909
H            0.98966891276350        3.27032573177176       -0.47678331316168
H            1.63869848368564        5.26397969027481        0.83673097875530
H            4.06226905172378        5.75329539632926        1.18162500714311
H            5.74454524382452        4.21928366318066        0.15666139266334
H            4.95059052654381        2.26805165736522       -1.14800687149744
