13
 energy: -14.242591509118 gnorm: 0.000456038598 xtb: 6.7.1 (edcfbbe)
C            1.01940146241964        0.04447065897242        0.08684435669429
N            0.50901356182797        0.23414638542255        1.45941621860958
N            0.96996407130041        1.48596094208886        1.94194682512626
C           -0.96748362902290        0.23979951440489        1.47813560791067
H            0.70453930527616        0.89007477714601       -0.52291966718702
H            0.62962640034132       -0.87750624511191       -0.33870478823053
H            2.10753234894060       -0.00004717870276        0.08956334796412
H            0.82830472927748       -0.57330767326279        2.02875357912650
H            0.62554787352689        1.69121153986935        2.87429896182145
H            1.98216644363886        1.55784526588363        1.92433985830943
H           -1.35572421131192       -0.68232871180929        1.05151291308335
H           -1.33349331507368        0.33823801167909        2.49909824024110
H           -1.32099504114083        1.08920271341994        0.89543454653081
