40
 energy: -49.370816838955 gnorm: 0.000281086869 xtb: 6.7.1 (edcfbbe)
C            1.64066041572618       -1.01762597548857       -1.53681254379583
C            0.13525911176125       -0.81210323423320       -1.67535999926843
C           -0.63521375909662       -2.14517725358483       -1.57347059468447
N           -0.44059063178571       -2.81211422354021       -0.30821259704161
C           -1.10567085945731       -2.55488472760586        0.81393040284049
N           -0.66901850128685       -3.30018901826602        1.82314951605982
C            0.35202488407063       -4.09379369507132        1.34413200189034
C            0.49746782494487       -3.78330926439447       -0.02278256743177
C            1.44058566759288       -4.43578768932002       -0.80942142939177
C            2.22553048802990       -5.38492860370803       -0.19006788419177
C            2.08347098002674       -5.68822097499575        1.16778558243509
C            1.14766720788296       -5.05492530643752        1.95757254168754
C           -1.12043091603268       -3.23681539150818        3.19118824922830
C           -0.14622152702642       -2.44577446445465        4.08459073046265
C            0.00563994282758       -1.01115785887080        3.58841833660980
C           -0.66498561910557       -2.47060707578905        5.51897385652857
C           -0.37001371067935        0.20674454806693       -0.65807867545413
H            1.90142542504455       -1.40230471202625       -0.55253880759693
H            2.15298128818849       -0.06916796097728       -1.67011493105260
H            2.01319515443672       -1.70607068054017       -2.29059040317547
H           -0.07226911024594       -0.42814259633646       -2.67840993617674
H           -1.70350939116171       -1.95436500759620       -1.70005713388069
H           -0.30635856775543       -2.82177561768317       -2.36357863077501
H           -1.91147553850806       -1.84943059552417        0.89001678605403
H            1.55688546230822       -4.21510321393445       -1.85723981183646
H            2.96860632761243       -5.91192838045983       -0.76676899131160
H            2.72131832902493       -6.43996887872744        1.60418282292080
H            1.03680095798973       -5.29887536968791        3.00113057359122
H           -2.10197147181156       -2.75840980108641        3.20822903583917
H           -1.22205805449930       -4.25742561906856        3.56752971410149
H            0.83272557700807       -2.93475994555911        4.05128502661418
H           -0.95843471321119       -0.50778054350289        3.56029680966672
H            0.65436495959075       -0.45600512480155        4.25953846003854
H            0.45240752026369       -0.97745860248895        2.59604067267665
H           -0.77500908354972       -3.49076603892612        5.87734875422277
H            0.02902317685089       -1.95362131842341        6.17482045258720
H           -1.63004931248877       -1.97464212959884        5.58611974521525
H            0.09824736038818        1.16941931537683       -0.84175003266553
H           -1.44657931091242        0.33965686263196       -0.73678927302639
H           -0.12028798294132       -0.09071383184770        0.35884417148439
