36
 energy: -48.694400171773 gnorm: 0.000555667277 xtb: 6.7.1 (edcfbbe)
C            1.58413203005238        0.62801773850443        1.17509910336973
C            0.65272627018116        1.12140783984173        0.12350276313671
O           -0.44303705650866        0.69186654347482       -0.12858576881504
O            1.19079267218281        2.14886522538064       -0.57641462311485
C            0.34294523890941        2.85903586846007       -1.46828891124130
C            0.79706538699368        2.74119149179200       -2.92653749687261
N            0.26414188383072        1.59615814695903       -3.72007791687978
C           -1.22230711542991        1.70709899470939       -3.92690930005491
C           -1.65587180564552        2.95196056625007       -4.65623321628156
C           -1.96597949551820        4.11447024220838       -3.95620573422123
C           -2.38008850624559        5.24954831178037       -4.63142008263329
C           -2.49527410034529        5.23496475949449       -6.01152021389773
C           -2.20795370547895        4.07693581303542       -6.71468110779157
C           -1.79262061069607        2.94151228254105       -6.04154613426613
C            0.94559297287460        1.61270029507730       -5.02865032810237
C            0.54766780586789        0.30907280406648       -3.06025004918259
H            1.43749027046276       -0.43662519229271        1.33261869888669
H            1.34843991382721        1.14070482568329        2.10700429270759
H            2.61329311137047        0.85059222497932        0.91169819755594
H           -0.68699885799041        2.52158575142973       -1.31430470082680
H            0.41925562791526        3.91178132995185       -1.18034558967522
H            0.50914075467953        3.65364649861093       -3.45236488899849
H            1.88766508686404        2.67141480990427       -2.92141678788090
H           -1.52955720832579        0.82624847789321       -4.49452946720181
H           -1.70240732969255        1.66014869127422       -2.94840795805021
H           -1.90772072522188        4.12975262041223       -2.87772752949637
H           -2.62244987050476        6.14229253909614       -4.07678589727897
H           -2.82335397319897        6.11825805481420       -6.53574269960848
H           -2.31677661421682        4.05257432093274       -7.78711877505186
H           -1.59572238086467        2.03739084292262       -6.59897201513871
H            2.01659825622208        1.47076817025923       -4.89580163336579
H            0.56496272100467        0.80848413773226       -5.65536112911188
H            0.77235246882269        2.56158299631444       -5.53311033725088
H            1.60551501914828        0.24272075969252       -2.81069616711934
H           -0.04153422144923        0.20360445834581       -2.15016827398778
H            0.29321608613761       -0.51362324152964       -3.72572832225352
