16
 energy: -20.762114686426 gnorm: 0.000306739069 xtb: 6.7.1 (edcfbbe)
C            1.52261970223073       -1.52505491681118       -0.00111342539787
N            0.35480635360342       -0.68170178766686       -0.00018540507571
C           -0.93654264036449       -1.13379540237718       -0.00027727424749
C           -1.75148469877194       -0.04822609730056        0.00064164504840
N           -0.93755366805941        1.04726261598444        0.00122953757700
C            0.34200623200068        0.65333369248745        0.00070428511315
C            1.50652379513061        1.55837739856243        0.00103468344550
H            2.12660924893141       -1.34296722173801       -0.89063480181628
H            2.12974791411605       -1.34059545631996        0.88575291799272
H            1.21022035176672       -2.56657775800750        0.00082985687752
H           -1.17914865349343       -2.17648536565060       -0.00094889931953
H           -2.81950061798733        0.02006418691880        0.00090600203458
H           -1.25025718784823        2.00834085084007        0.00196546858568
H            1.48645518032307        2.20429999142402       -0.87682451876894
H            1.48741983837442        2.20244967566593        0.88028142575203
H            2.43874885004772        1.00268559398871       -0.00009149780077
