21
 energy: -32.873566329304 gnorm: 0.000259314664 xtb: 6.7.1 (edcfbbe)
C            0.47794142515425        0.58340863502040       -0.14788413665858
O            0.18244083254271       -0.21518391217041       -1.30214908602261
C            0.92200404110708       -1.26038323846845       -1.54889720269883
O            1.84611898256973       -1.69288011818417       -0.91954728559549
C            0.44618534452270       -1.95475115229282       -2.86186114641075
N            0.90558394206338       -3.31913982450291       -2.84050711007259
C            2.22635817914818       -3.54400905473949       -2.86907142044729
C            2.73175726297863       -4.81870146245650       -2.70670349381501
C            1.85707620183534       -5.87823043603858       -2.51234011071201
C            0.49005410454720       -5.62249105203569       -2.49475767668523
C            0.04450423038566       -4.32835276649774       -2.65059695922717
H           -0.43436419325386        0.65426863911813        0.44200124008797
H            0.77412646620455        1.57375078730419       -0.49088202345503
H            1.27788015659111        0.12771559672913        0.43538050429481
H           -0.63982143357273       -1.89494584561784       -2.93403692337369
H            0.88860565180497       -1.40696108192163       -3.69890485803028
H            2.87548841057732       -2.69635215745588       -3.02588566490367
H            3.79860675434717       -4.97321044789406       -2.72850750302283
H            2.22870327279563       -6.88194806611204       -2.37758723738935
H           -0.22343055719252       -6.41796543792003       -2.35022094230877
H           -1.00804907515738       -4.08694760386196       -2.62586096355511
