40
 energy: -42.297813968179 gnorm: 0.000192556713 xtb: 6.7.1 (edcfbbe)
C            2.38645462267300        1.82864641232864        1.73749782578857
C            1.66801963769520        2.97222600233867        1.02988600932305
C            1.51352927373584        2.75111790380897       -0.47571256694066
C            0.61380094036624        1.57239439099661       -0.81935460162551
S           -1.10014253856973        1.93414995548589       -0.26225722215699
C           -2.07999927226513        2.28474384202320       -1.78054013830579
C           -1.57201670020884        1.75139492827912       -3.10921358066360
C           -2.66119339558144        1.86332988337981       -4.18548212935544
C           -3.05401919102084        3.30003265963838       -4.50442811214136
C           -1.75883524554450        0.32313078971365        0.33153275959177
C           -2.01471565300206       -0.80370904178155       -0.65694386169174
C           -0.78090917614040       -1.54870811632163       -1.17257206096031
C            0.02715877152410       -2.22029293181576       -0.06808913982253
H            1.79836428660120        0.91332730261070        1.74165386289108
H            2.57817225401259        2.09752967436856        2.77204373966390
H            3.34147591069941        1.62340580888376        1.26053929780481
H            0.68510263888323        3.12739958744606        1.48248194325378
H            2.24230170285266        3.88688486941941        1.17774493467030
H            1.12455377191233        3.65942969617630       -0.93983032870200
H            2.49560378568386        2.55423222609101       -0.91072923525874
H            0.60532367957885        1.37780848223368       -1.88757047187986
H            0.93302942816173        0.68249518695003       -0.28320442579958
H           -3.07379608697583        1.89703249629021       -1.55521882523348
H           -2.13571512283048        3.37273487170930       -1.80490154179088
H           -0.70372827487948        2.32538733396894       -3.43795259331995
H           -1.28892288341655        0.70106120333999       -3.02700553908125
H           -2.27656319325833        1.39225040951256       -5.09114415997198
H           -3.54370876818617        1.30147472420471       -3.87301106416751
H           -2.17832458413229        3.89064477426006       -4.76248549852713
H           -3.73000129205483        3.31322750790070       -5.35434693099004
H           -3.56277174926079        3.77350921363069       -3.66867198239818
H           -1.06462197797095        0.01639393505995        1.11285383441462
H           -2.69485917571896        0.61320137222604        0.81171813552003
H           -2.63932755552969       -1.52524430289457       -0.12348412078456
H           -2.60644114229692       -0.44181781093385       -1.49880507638432
H           -1.13644044053169       -2.32236170374505       -1.85506428205321
H           -0.13485429509713       -0.88768855747293       -1.75236493241831
H           -0.60832604992609       -2.87137069113370        0.52630183363822
H            0.81525440180889       -2.82663829090957       -0.50516671333057
H            0.49776865819765       -1.50079599724176        0.59914695919682
