44
 energy: -45.278610230935 gnorm: 0.000262218284 xtb: 6.7.1 (edcfbbe)
C            0.76024573899572        0.11164630808436        1.53336067989918
C            0.10961635826746       -0.78856986115645        0.47874573018942
C            0.64846931955657       -2.22084589131610        0.55784798583028
C            0.50183904575082       -2.88532497983678        1.92844434571822
C           -0.94172205965542       -2.96121927615652        2.42370638361796
C           -1.06865715307329       -3.69044773288172        3.76239390941172
C           -0.48798321770017       -2.90186431271473        4.93136695075341
P            0.31188542969001        1.87446040164224        1.39979305257375
C            1.36894568329585        2.74908261748248        0.19056784043347
C            1.23754144079385        2.26946131304476       -1.25073386689750
C           -1.43213207753530        2.07915021974613        0.89724145740610
C           -2.42467318295384        1.61334389896174        1.95795089577555
C            0.60503274353688        2.73051731445365        2.99569991465770
C            0.38975662059089        1.87289267736453        4.23983368442279
H            1.85144608209036        0.05123231473120        1.46798688996361
H            0.46299205042077       -0.22322370320358        2.52933829470251
H           -0.97087979235509       -0.80667615755102        0.62303013758660
H            0.30325515549625       -0.40478675195826       -0.52416399128883
H            0.11701544955953       -2.81847509089623       -0.18458720541174
H            1.70548233410796       -2.22015103231622        0.28253219158204
H            0.89042573968799       -3.90173997961172        1.84712134917904
H            1.12268499972006       -2.36672305659208        2.66024191455819
H           -1.36163463112693       -1.95839808038142        2.53936447515287
H           -1.53998755610902       -3.48599402073973        1.67616489085534
H           -2.12648461774012       -3.87647020330690        3.95760098595902
H           -0.57100898726284       -4.65880489344726        3.69511434208192
H           -0.95654492515144       -1.92118753692898        5.00524035304050
H           -0.66757255976714       -3.43091341499480        5.86302854794392
H            0.58614424207583       -2.76925209987790        4.82631587227117
H            1.10765405914051        3.81002910279365        0.26290500822503
H            2.40246483361854        2.63643446344374        0.53283451525824
H            0.21021035675613        2.33232971802419       -1.60122617191220
H            1.84811290752322        2.89776663635048       -1.89472974922427
H            1.58766418737109        1.24642454253596       -1.36022131430835
H           -1.57828261541477        3.14123341340223        0.67767522103927
H           -1.57471870396271        1.51995195230760       -0.03107867906518
H           -2.36782929449844        2.23207137587295        2.84998654503627
H           -3.43632973856763        1.68822088279913        1.56654448480041
H           -2.25105338471893        0.57670986339043        2.23806444736540
H            1.63267107519170        3.10453402859943        2.97837120897746
H           -0.06180165003242        3.59818763316441        3.00851606210928
H            1.14949313589066        1.09973176590808        4.32152836834646
H            0.46552756982831        2.50185459299970        5.12348744266459
H           -0.59136041132671        1.40513103875462        4.24733459871311
