70
 energy: -77.751272846643 gnorm: 0.000187971803 xtb: 6.7.1 (edcfbbe)
C            1.33008674107853        0.77323623626645        0.24102201229639
C            1.08414766721070        0.98511847414493       -1.24802556525222
C            1.43953829909503       -0.23537919582270       -2.09834877775086
C            0.62712680827434       -1.49486090800171       -1.79093679625181
C           -0.88497324383090       -1.35110894889585       -1.97417474101805
C           -1.33202273793577       -0.95392276931048       -3.38275483638147
C           -0.86886523905968       -1.89381126384747       -4.49800223284401
C           -1.27934015420978       -3.35674002654804       -4.32125435100608
C           -2.78853049731329       -3.60175646180499       -4.27453425021657
C           -3.54207047692954       -3.23582431379613       -5.55497586549587
C           -3.06769075737248       -3.96160286380699       -6.81727287887397
C           -3.04474901440796       -5.48848615892134       -6.71048823591146
C           -4.39258970387363       -6.13786292398900       -6.38931992533040
C           -5.45325277095142       -6.00612288984343       -7.49004397795948
N           -5.14389659005336       -6.78049400682528       -8.68706738258663
C           -5.39686995386310       -8.07382982816466       -8.81280518613696
C           -6.06755463779545       -8.82260886361972       -7.70082117852040
C           -7.55751184172114       -9.06693770005478       -8.00407769477140
C           -7.78680248952313      -10.29816681553895       -8.87371129340499
C           -7.10258786666582      -10.20830548646938      -10.23439213393360
C           -5.57824003961395      -10.10584489946367      -10.14071761205511
N           -5.11606961028115       -8.74113508460543       -9.92252026893146
C           -4.42369280969173       -8.13209427713752      -11.04686153675450
C           -3.62291912171229       -6.93043040275957      -10.58084654325166
C           -4.54899568362645       -6.02977813955962       -9.78382904140898
H            0.66353107393838        0.01596773492678        0.64580791883601
H            1.15892024336681        1.69861594085410        0.78616258406462
H            2.35662556895729        0.45827156334626        0.41595864151467
H            0.04028029221868        1.25987495637491       -1.40924022221549
H            1.69596107846219        1.82373288445134       -1.58941523429940
H            1.31844572103196        0.02554634083008       -3.15191723259122
H            2.49583830979138       -0.47021320430679       -1.94319379991642
H            0.99414620796066       -2.30122548828737       -2.42997508254639
H            0.81654471962253       -1.79754809199439       -0.75935651736190
H           -1.35411274234954       -2.29889808677868       -1.69937927111334
H           -1.26001224669314       -0.60021260805053       -1.27641549208566
H           -2.42293898773251       -0.89135415768199       -3.39016350031937
H           -0.95670590297701        0.04603409642262       -3.60787382626440
H           -1.25819686815179       -1.51783386200467       -5.44722582051838
H            0.21990456290011       -1.85594671073545       -4.56481464164437
H           -0.83930415341415       -3.93766736479154       -5.13537001925595
H           -0.84796087476189       -3.73574631174611       -3.39357227767075
H           -2.96002175321934       -4.65485642748319       -4.03822069417836
H           -3.21718501449021       -3.02190084095206       -3.45612912607195
H           -4.60569665163076       -3.43291345479059       -5.39757541482849
H           -3.44426431367549       -2.16377747159472       -5.73117199943872
H           -3.70608832272521       -3.64594476900424       -7.64778031862989
H           -2.05606620245183       -3.63080366131769       -7.05629135004501
H           -2.64438352928763       -5.90792841734823       -7.63689381438428
H           -2.35021431409047       -5.76612919044427       -5.91750472339833
H           -4.21722021014252       -7.19414788090107       -6.17527419703656
H           -4.79933704769673       -5.68372335260751       -5.48622212494438
H           -6.43118773025834       -6.29986155003320       -7.10501962501360
H           -5.53183742050706       -4.96224407127510       -7.79388709680636
H           -5.97706012475680       -8.27705583137077       -6.76722226069174
H           -5.57226706918828       -9.78397418400245       -7.55695064402757
H           -7.98544471150814       -8.18506207251015       -8.48519106974945
H           -8.07942672808753       -9.21084943612523       -7.05798339645280
H           -7.42375607466966      -11.18308927988667       -8.34721227117922
H           -8.85865938234261      -10.42696804252710       -9.02579765024423
H           -7.34689045778936      -11.10549653914076      -10.80322959284790
H           -7.48722058425765       -9.35145290698961      -10.79102683290768
H           -5.13971645578969      -10.44097720872198      -11.08036402436604
H           -5.20547741767561      -10.76551609844157       -9.35247671763353
H           -5.15279228594498       -7.83981186340892      -11.81060954962090
H           -3.75769923241558       -8.87924016844726      -11.48433395503537
H           -3.21205593066429       -6.39582267788299      -11.43482334730187
H           -2.79530653730220       -7.25844511346785       -9.94928673925871
H           -5.34610777667874       -5.63648317833286      -10.42505726494954
H           -3.99694699816558       -5.18629242335493       -9.37115011181348
