69
 energy: -99.471034598124 gnorm: 0.000218332611 xtb: 6.7.1 (edcfbbe)
C            1.48671312624263        0.36203736747988       -1.11814851638229
C            1.34616949118364       -0.89021796649644       -0.35170768893133
N            2.31055503627116       -1.81044639779002       -0.24742185384671
C            1.84437573078032       -2.85308185291619        0.49739198152541
C            0.57003526182042       -2.55409630116863        0.84731611133526
N            0.27075768885971       -1.33527052504019        0.30519744888057
C           -0.97341152417913       -0.65115759408903        0.56825435003796
C           -1.06306909606551       -0.14483815221984        2.01706617022830
C           -0.46334736339774        1.25660797743827        2.31170701735472
C           -0.82788347617997        2.22288941795378        1.19579612781932
C            0.12199104134218        2.98497070373931        0.52657289287546
C           -0.25215108016907        3.84990045577953       -0.49072519640454
C           -1.58114241475851        3.96911010405704       -0.85350370053792
C           -2.53826229522096        3.22085640807881       -0.18743274981093
C           -2.16560641207519        2.35677168145400        0.82533102447765
C           -1.01397137472144        1.73654128072356        3.65536363208932
C           -0.91161144616744        0.90828309915416        4.77017683905988
C           -1.38315320417478        1.31926042294831        6.00337804241284
C           -1.95696231299424        2.57100563253148        6.14879991811356
C           -2.04093316031227        3.41131596127678        5.05363492052961
C           -1.56824749990442        3.00102488355748        3.81787956434769
C            1.06636642162319        1.15073952886173        2.46199364910813
O            1.72301474077395        0.24774161150969        1.97701570988850
N            1.62902100625668        2.14741893271296        3.16269831363083
C            3.62976328036976       -1.71757717235739       -0.83272123552477
C            3.56522050310668       -1.59516500514280       -2.33691036847545
C            2.75261090666631       -2.44823584346658       -3.07527462493400
C            2.66819720714935       -2.32053031394376       -4.44778056468386
C            3.40393920750805       -1.34567728245580       -5.12019942137402
C            4.23473252235994       -0.51045227460890       -4.37577520185022
C            4.30822301561272       -0.62855772712561       -3.00135121066283
C            3.29906881834690       -1.19371616696220       -6.57758101409007
C            2.05912909567871       -1.27258916023841       -7.20806656282765
C            1.95714378740296       -1.11274661248312       -8.57728496788283
C            3.09182315316538       -0.88225032175447       -9.33721403972178
C            4.32987306708787       -0.80895464413086       -8.72053289183114
C            4.43394230720221       -0.95805723806850       -7.35017406261717
H            0.64852479598609        1.03088089987703       -0.95157077913449
H            1.56823914025003        0.14547129519953       -2.18370094301545
H            2.39832551577033        0.87267986337428       -0.81263938147140
H            2.44256777099933       -3.71131790071174        0.72376452180668
H           -0.13745875914101       -3.11083831711918        1.42601362891798
H           -1.09913077385176        0.16797026825688       -0.13973394703841
H           -1.77849401342574       -1.37262047999660        0.40384604964990
H           -2.11671285053649       -0.11657588875803        2.29525197531064
H           -0.57142365875761       -0.87497258098055        2.66012634709838
H            1.16508849904563        2.91606663733783        0.79559176953110
H            0.50235052388336        4.43352996642575       -0.99575346017218
H           -1.87121316311720        4.64476730820773       -1.64262115154989
H           -3.58003537534648        3.31400051143266       -0.45272885208012
H           -2.92608397147583        1.79618467716849        1.34710364147486
H           -0.44950465139525       -0.06369757787592        4.68460229141309
H           -1.29877400863019        0.65966838382643        6.85328632250230
H           -2.32828079977851        2.89045747864649        7.10975571533684
H           -2.47431407572134        4.39439009028225        5.15531834027427
H           -1.63835610678468        3.67756495030105        2.97961353503466
H            1.07429154788313        2.86031374676332        3.60585142795117
H            2.61992021504260        2.12264545750238        3.34277602457593
H            4.14638064444016       -0.85249901442527       -0.40633357207026
H            4.17966379645902       -2.61881754001092       -0.54817850805198
H            2.18270197034247       -3.21862991315535       -2.57409379118596
H            2.04162810959816       -2.99625855170915       -5.00953783453520
H            4.80848532588795        0.25361737587821       -4.87712908361038
H            4.94996336674397        0.03514905975620       -2.44042595357954
H            1.16854446761138       -1.43522347534412       -6.61777960574032
H            0.98936395197397       -1.16698828138928       -9.05303522760033
H            3.01132575951517       -0.76062696628916      -10.40648047533954
H            5.21760341396343       -0.63513083552222       -9.30964201697121
H            5.40369963540787       -0.91785756488758       -6.87610484944992
