47
 energy: -75.221836849737 gnorm: 0.000523175901 xtb: 6.7.1 (edcfbbe)
C            0.24932109448111       -1.53014731485259        0.91301582097789
C           -1.00979428137176       -1.06239863411133        0.56238912635351
C           -2.11460836455348       -1.46394103131716        1.29395444741020
C           -1.95781638986707       -2.33266490900752        2.36224335308530
C           -0.69765153866189       -2.80071137141169        2.70008887826639
C            0.41430379776697       -2.40441173647859        1.97552232020727
S            1.61547967453105       -0.97245695338922       -0.14333178942659
C            2.40504809848329        0.23834685357325        0.94356038015549
C            3.64877206626300        0.73547665085924        0.58589049488043
C            4.28419169887225        1.67187846411156        1.37902367589279
C            3.66607800784461        2.13196033737819        2.53179713947190
C            2.41217461217834        1.65311166028952        2.87662278885547
C            1.77558126775807        0.70744986164466        2.08696410453796
S            4.44583452146515        0.14442828439666       -0.92941733659361
O            5.43767889339771       -0.82143360440396       -0.56049559495757
O            3.33198975169598       -0.30955397905530       -1.74120824307307
C            5.20124439285047        1.58240871241002       -1.66562282821875
C            4.38092374092983        2.56152933932281       -2.19513968393578
C            4.96231406488494        3.68422448334713       -2.76031352065180
C            6.34409344270104        3.80947505791987       -2.78421406658093
C            7.15257163508251        2.81722700467129       -2.25041875524678
C            6.57907532463359        1.69024118872268       -1.68333914093414
C            2.73008900959933       -2.37650566984539       -0.00256603766017
C            3.61052548355470       -2.51967815965882        1.05553836490842
C            4.45033994758664       -3.62085170468001        1.07619129162818
C            4.40721175604851       -4.55381588416868        0.05377547645946
C            3.52040351926315       -4.39485224510923       -0.99881515391214
C            2.67552502209143       -3.29933749672143       -1.03326757905573
H           -1.11745768293913       -0.39188899140552       -0.27619985946927
H           -3.09462977466884       -1.10320090882738        1.02507255827435
H           -2.81865026012105       -2.65061317454030        2.92907934757623
H           -0.57553368315972       -3.48151365801938        3.52792598791497
H            1.39151253481725       -2.77910428329561        2.23635283806347
H            5.25752064924381        2.03303697577501        1.08505755996432
H            4.15811785497922        2.86282508200710        3.15352273341736
H            1.92029016927996        2.01357997231622        3.76630168104983
H            0.80030771747555        0.34043478021499        2.36571868302314
H            3.31066092021405        2.42716277276485       -2.17516127940026
H            4.34042738617315        4.45692508393788       -3.18431188446140
H            6.79327642944263        4.68465290503376       -3.22784185592181
H            8.22623596717979        2.91746182509954       -2.27842959115132
H            7.17300290279694        0.89162377514421       -1.26733427096541
H            3.66156946764179       -1.78732119885376        1.84759220390675
H            5.14596518713634       -3.73867480464601        1.89195435872846
H            5.07312133976060       -5.40223708813020        0.07359395660679
H            3.49098368892067       -5.11606375720950       -1.80024073512286
H            1.99401893640734       -3.14814251180423       -1.85506036483625
