67
 energy: -74.552696208962 gnorm: 0.000441053693 xtb: 6.7.1 (edcfbbe)
C            1.19396320545114       -0.54780745651520        0.46284218892905
C            1.08326885190833        0.76765151481272        1.22442123061168
C            1.31054741405051        1.99588376333562        0.34190981355836
C            0.29375702326787        2.17736436221662       -0.78699982760930
C           -1.16135785500629        2.31203720626617       -0.33342445617332
C           -1.43372416979526        3.46604207975474        0.63356824965131
C           -1.04413388951578        4.85077126650352        0.11303334682456
C           -1.73698541133865        5.27210729023075       -1.18392950094475
C           -3.26281067878281        5.35213038360500       -1.10587103041844
C           -3.80776615648904        6.32954454158468       -0.06208610879767
C           -3.31516624869626        7.77085820047155       -0.20725730626604
C           -3.59997775393022        8.41736132931983       -1.56406482176245
C           -5.08107685786930        8.51830488927852       -1.93341729754941
C           -5.93068648587143        9.35327001085427       -0.97304939267454
C           -5.45373726313190       10.79446801115790       -0.77443462010230
C           -5.31094440889115       11.60897210995193       -2.06269706155037
C           -6.60057952555799       11.76795042906080       -2.86848931303774
C           -7.67889250717017       12.59670092852804       -2.15898979124461
N           -7.24222822432031       13.96069871319192       -1.96708568378547
C           -6.60690698237129       14.45043366797912       -0.86838803934112
C           -6.29362655981547       15.75135331034757       -1.12497816584393
N           -6.73814456805973       16.03359320722561       -2.38075391110876
C           -7.30587560381796       14.93490189928528       -2.87081888006223
C           -6.61608758103736       17.30594377229299       -3.03970885825187
H            0.39683182612647       -0.64550228048905       -0.26968042008698
H            1.12504356894130       -1.38793643272997        1.15021741314445
H            2.14842180001107       -0.60787073188727       -0.05607899385359
H            0.10442024414259        0.82998164125706        1.70304158390546
H            1.83385965946316        0.77835100634083        2.01889570747394
H            1.30944078034121        2.88553362349921        0.97520819163898
H            2.30428911142418        1.92101038740232       -0.10775943256539
H            0.57623270042956        3.06318020054121       -1.36041678493367
H            0.36016439435661        1.32579072997633       -1.46695849068233
H           -1.78560503635654        2.43081068625483       -1.22208868332131
H           -1.47354521842430        1.38420331800728        0.15002922644020
H           -2.49753699443293        3.45957826250454        0.88216842359990
H           -0.88969065021155        3.28871928821679        1.56350823101052
H           -1.26202465027862        5.58322223814407        0.89369789568597
H            0.03424548699598        4.87803017280958       -0.05524027453226
H           -1.33879898266616        6.24423447763837       -1.48406769405225
H           -1.47531496855979        4.56571037181980       -1.97387874045877
H           -3.64155019291830        5.62850830220987       -2.09287865575769
H           -3.66167835457479        4.36140737340685       -0.88064633423838
H           -4.89910080176536        6.31111760866456       -0.11303817134942
H           -3.53188614171834        5.97861786678885        0.93398707685479
H           -3.76953676862073        8.37008361459774        0.58555305186235
H           -2.23640601150053        7.79545824119398       -0.04349167293425
H           -3.15218287056481        9.41425167596629       -1.57019951862405
H           -3.09842462370488        7.84140402563053       -2.34302610503273
H           -5.15752645006474        8.93022879372345       -2.94282564981451
H           -5.50676976092951        7.51482191224751       -1.96994382861738
H           -6.96240110689344        9.35217309040411       -1.33420709280125
H           -5.93991452718106        8.86926054113804        0.00435957252004
H           -6.14496457231895       11.29035780387366       -0.08721542029363
H           -4.48021207946026       10.77863474147439       -0.28328042451012
H           -4.90597061470968       12.59506117554674       -1.81538299606970
H           -4.57788268002818       11.11964129817927       -2.70323779539839
H           -6.36940313607721       12.23598889748953       -3.82806696970433
H           -7.02242297699113       10.78558363930982       -3.07451044863138
H           -8.59181947025367       12.60540100454821       -2.75788352953787
H           -7.90145238045066       12.16650771521646       -1.18217337444328
H           -6.42805835033497       13.86084468776060        0.00763263749539
H           -5.79603167304265       16.47585994918407       -0.51315294770887
H           -7.75383295033624       14.84907226498455       -3.84191641958983
H           -5.56991040855379       17.61245636420435       -3.06835639467477
H           -6.99487555415565       17.23562040509233       -4.05700103483247
H           -7.18374637748784       18.06490461711511       -2.49954547561125
