25
 energy: -30.264174356743 gnorm: 0.000704347295 xtb: 6.7.1 (edcfbbe)
C            1.24546160093544        0.10440133703062        0.19483005371755
C            0.40891488063544       -0.52304261232827        1.30526262329565
C            0.66404119357846        0.16485554008772        2.66345219862144
N            0.27978572711477        1.55558532173462        2.65509637956086
C           -0.95181661129970        2.04437901878029        2.96461048110726
C           -0.91861977076135        3.39105374106237        2.76140885906371
N            0.33263517364702        3.70291798307498        2.32444384977765
C            1.03945864948200        2.57667539701057        2.26754585691441
C            0.80499486568504        5.02630572872515        2.01648527916492
C           -1.07338294051473       -0.51911466113657        0.94471766347850
H            0.93116111059069        1.12603956442781       -0.01156710289425
H            1.12341407754567       -0.46703856425575       -0.72040504450161
H            2.30219048706520        0.10075097458359        0.45053192833201
H            0.73140343820089       -1.55956362675727        1.43734926893664
H            0.08896850680736       -0.34044054551017        3.44144341851198
H            1.72568175091603        0.10093008645947        2.91047908681102
H           -1.75108869487409        1.42091398954143        3.30892500860786
H           -1.68361688518477        4.12862880243614        2.89457329125160
H            2.06704004234234        2.50555755077997        1.96818462447993
H            1.01166941004227        5.57703558216997        2.93564547369008
H            1.71788371704494        4.96839782282863        1.42760854150190
H            0.04734982280205        5.56796932675711        1.45209813847549
H           -1.23119877369852       -1.10385025383599        0.04325966511988
H           -1.66991346746687       -0.96350462803782        1.73756232349801
H           -1.43442731063672        0.48961712437174        0.75238813347716
