51
 energy: -64.526738575097 gnorm: 0.000555243802 xtb: 6.7.1 (edcfbbe)
C            1.07844659247589        0.33300172992525        0.12094574369843
C            0.78222021775083        0.31880991198833       -1.37378762661529
C            1.25150002393911       -0.95897842545177       -2.07151838796983
C            0.61160561623203       -2.24976387797406       -1.55540616495295
C           -0.91600455568884       -2.28967588802782       -1.62921231796866
C           -1.49943498854726       -2.10420516950044       -3.03119648153188
C           -1.04720534242694       -3.14017698782827       -4.06366001341575
C           -1.32321462256718       -4.59776803803868       -3.68323930199655
C           -2.78221304402904       -4.91695825353809       -3.36196797723764
C           -3.74058023042683       -4.74634996227255       -4.55165137278902
N           -3.48538658904018       -5.75428850656182       -5.56181708664435
C           -2.63580370247608       -5.49985538068968       -6.56416828057600
C           -2.32460127625396       -6.46593856830828       -7.49622225351905
C           -2.90090512324030       -7.72989253412094       -7.38945522155361
C           -3.77932476404887       -7.97590973439152       -6.33558044498757
C           -4.04584729611815       -6.96463294972475       -5.43902365022430
C           -2.55575710233780       -8.76733516776632       -8.43252409034072
O           -1.87275400305401       -8.49816925772829       -9.38282320220496
O           -3.08061932248156       -9.94018353586134       -8.13959652842412
C           -2.84164495475528      -11.02193899762754       -9.05971092261707
C           -3.88440101080556      -11.03958166539225      -10.16537173031797
H            0.50131340821121       -0.42412202490797        0.64587239424349
H            0.82481433154698        1.30204341075930        0.54369227566052
H            2.13491931747762        0.14812702741487        0.30117275060843
H           -0.28811738923827        0.46221152657464       -1.53433760772283
H            1.29412432800042        1.16299759511537       -1.84130571812612
H            1.06521821812222       -0.86082680660833       -3.14359715205158
H            2.33246718554861       -1.04783534674644       -1.94047966874527
H            1.02839596563891       -3.08801520601999       -2.11917955493358
H            0.90062842826934       -2.39531059167055       -0.51356669944461
H           -1.25560012194078       -3.24017870976076       -1.21024852656575
H           -1.32182420735478       -1.50209969543494       -0.99307326689051
H           -2.59020844651707       -2.10832635548726       -2.95661651412350
H           -1.21476341948792       -1.11961146056678       -3.40387078302270
H           -1.52461160647505       -2.89694383285631       -5.01760302426954
H            0.02721672151465       -3.03839157541941       -4.21838965501326
H           -0.96603166311459       -5.25005383245401       -4.48687525713190
H           -0.73405336421595       -4.84090952688807       -2.79895708353682
H           -2.85368740225835       -5.94255179464339       -2.99286783509181
H           -3.12892584080542       -4.25640389660824       -2.56862890345149
H           -4.77072463621205       -4.84775186221827       -4.20559723229554
H           -3.61231109376553       -3.75611177282815       -4.98916130383621
H           -2.21558362323222       -4.50658180128077       -6.62067567674575
H           -1.64526072069336       -6.26101044892601       -8.31044977304705
H           -4.24410591772531       -8.94286382156031       -6.22689364890366
H           -4.72136979401558       -7.11241133694385       -4.60884092211975
H           -1.83816806986809      -10.90937459973286       -9.47975467966417
H           -2.89598117740691      -11.92374661197231       -8.44820874421893
H           -3.81615045477081      -10.13594049664468      -10.76626228578229
H           -3.70705248885012      -11.89705842833780      -10.80690075220359
H           -4.88454098848008      -11.11531646445072       -9.74599783938664
