30
 energy: -33.913915401313 gnorm: 0.000221098035 xtb: 6.7.1 (edcfbbe)
C            1.43283362709529        0.83747518421405        1.71353476311752
O            1.04848339889550       -0.14167846956780        0.76754610615429
C            0.99564883519486       -1.44238984998285        1.30187089376099
C            0.30550262054766       -2.40288564865090        0.32766963370199
N            0.85061530235254       -2.45211953845488       -1.06145941748975
C            2.34682801143414       -2.43296999964494       -1.07893407918030
C            3.03400057079548       -3.61141528691896       -0.40437923758215
C            0.37127039477788       -3.69554180512151       -1.74267523500971
C           -1.13625019844031       -3.83291913847226       -1.89332123564957
C            0.39007107940591       -1.26513654851557       -1.81181199058376
H            0.71971977930248        0.88206642315907        2.54133042882703
H            1.43780258826945        1.78660651053189        1.18412701259479
H            2.43173825653665        0.63049011232703        2.10956871829606
H            2.00635905884280       -1.78464060111228        1.56849894861758
H            0.39662704888253       -1.45010184584795        2.22532015242300
H            0.35521405229460       -3.40361201581447        0.75943614775658
H           -0.74074281420925       -2.10564214573380        0.25091124631521
H            2.65804111467483       -2.39719154904117       -2.12508926249201
H            2.65632948123529       -1.49873743247926       -0.60972554934327
H            2.91704337967326       -4.53407638825607       -0.96555486867905
H            4.09886471756499       -3.39560949836696       -0.36220537337700
H            2.69125968250573       -3.77166480102883        0.61342386550769
H            0.83062838486256       -3.71627164825935       -2.73331847239939
H            0.74297688113018       -4.54829109809159       -1.17392675049093
H           -1.56330912653312       -3.06910383927955       -2.53583085846509
H           -1.33346870060337       -4.79385848593876       -2.36242862332743
H           -1.65104514091353       -3.82773251463581       -0.93732212113041
H           -0.69528926063401       -1.21827795857431       -1.81675718909393
H            0.76647167929037       -0.36535969925533       -1.33044733448472
H            0.74819529577481       -1.31122042318703       -2.83822031829444
