72
 energy: -79.528494024997 gnorm: 0.000224648932 xtb: 6.7.1 (edcfbbe)
C           -1.64588958866570        0.50197893997305       -1.56378526901243
C           -0.99186004985099       -0.17524010260408       -0.36560151396617
C           -0.06998675492249        0.75117089159235        0.43089563489900
C           -0.76394196279476        1.96259529964978        1.05949070096310
C           -1.77236498019937        1.61266959925186        2.15740090429776
C           -1.23435695212675        1.01682750245746        3.46352917588201
N           -0.56012069202056        1.93629781722604        4.44339842608165
C           -1.06023838559340        3.34089056446883        4.32457832793136
C           -2.53999200761138        3.66101131378215        4.46649727131400
C           -2.84797307498789        5.00545897730125        4.25322537712652
C           -4.14209741094358        5.47166056024921        4.37265636343783
C           -5.16400506516983        4.59949803223086        4.71094411595807
C           -4.87258997316839        3.26575663248932        4.92104518918318
C           -3.57232260028852        2.79619847308609        4.80209201997510
C           -0.79534530239979        1.52025409370931        5.86922498852306
C           -0.94420125329391        0.02319541574391        6.15512887140670
C           -0.67600521396404       -0.27181775808216        7.63532471402970
C           -1.69257699109486        0.38214462401046        8.57096182155826
C           -1.56464258460990       -0.10794566492503       10.01443032499548
C           -0.25956998735613        0.31320664297788       10.67928911925336
C            0.92252125153083        2.01620606003462        4.15823872313873
C            1.86188507340039        0.93315159315625        4.70757200249716
C            2.12079262379824       -0.28158623061310        3.81026128081515
C            2.98645269729247        0.02425188823135        2.58456444492230
C            4.43587439358157        0.40352165173293        2.89794758418016
C            5.21831491820835       -0.70162143751869        3.59709703634334
H           -2.36810198257441        1.25337159410375       -1.25412753196629
H           -2.17034444061986       -0.23480685562431       -2.16602692316057
H           -0.89463963342682        0.97896504148607       -2.18856461838997
H           -1.76411442652208       -0.59331759613238        0.28362967594050
H           -0.38820978151147       -1.01151665636779       -0.72325299459864
H            0.42711746310420        0.15997127963851        1.20240467833133
H            0.70551041256116        1.12041495179341       -0.24319272615013
H           -0.00603968974811        2.65942935676897        1.42601748366634
H           -1.30773496146663        2.49084235188361        0.27610352314223
H           -2.39975824398410        2.47858592694596        2.36506610191016
H           -2.43881679937115        0.84930928652191        1.75135257393944
H           -2.08442019578617        0.56795756094504        3.97159101858878
H           -0.53251668417832        0.21930657817994        3.22880619070456
H           -0.54443723411604        3.92018719271766        5.09846655880559
H           -0.72876945408283        3.72589700220975        3.35704100782300
H           -2.05773543917537        5.69390810720585        3.99098364237958
H           -4.35115596438683        6.51587264342596        4.20250539259225
H           -6.17621012906910        4.95744435239040        4.80853811346494
H           -5.65794527627913        2.57380326330795        5.18248532035620
H           -3.41021037784411        1.74426227525387        4.97149092857450
H            0.03714392604416        1.91915956062584        6.45245508343462
H           -1.69762678840211        2.02363004294886        6.21407933794067
H           -1.95721283034829       -0.31202582990612        5.92567993601250
H           -0.25698833358725       -0.56808803112449        5.55189108832058
H           -0.71817257623832       -1.35297877388139        7.77646659879854
H            0.33161503034773        0.05489330078630        7.89725462592720
H           -1.57336692764502        1.46783755238356        8.55915451777978
H           -2.69935367241677        0.15097386782918        8.21451962843903
H           -2.39902467710135        0.29854781691472       10.58868613693477
H           -1.64931146363123       -1.19597156340937       10.03534439622671
H           -0.13465926160507        1.39296222019872       10.62905573453327
H           -0.26543160895220        0.02174110582533       11.72585490135103
H            0.59718005876125       -0.15977481306610       10.20609959990329
H            1.04141819261173        2.06705117878049        3.07707416013254
H            1.25983698721692        2.96628742196671        4.57693521786161
H            2.82444246353382        1.42536200447276        4.85719962615109
H            1.54437712554908        0.59550286420269        5.69039161292967
H            2.63014064061221       -1.03518394930715        4.41109690465550
H            1.18381533443169       -0.73410617459781        3.47803963139741
H            2.99638371249713       -0.86453385673010        1.95065277046641
H            2.53922998086861        0.83287219950362        2.00160481568471
H            4.92659779723112        0.63322398498563        1.95043516645209
H            4.47007194086037        1.31257986186033        3.50249475165738
H            5.15240531299495       -1.62980354735717        3.03463597765714
H            6.26597708282488       -0.42323754830852        3.67165978049714
H            4.84920526496781       -0.87904393159272        4.60434294723355
