22
 energy: -30.277512416639 gnorm: 0.000970135522 xtb: 6.7.1 (edcfbbe)
N            1.18001373570716        0.13555557038900       -0.13962027065262
C            2.31786648902323        0.11422534319772       -0.09740299474049
C            3.77476898044158        0.10887264334310       -0.08302914299143
N            4.27896068777449        0.60400939285881       -1.35794382292169
C            4.22942143544272        1.91854113723936       -1.60121590546297
C            4.64823065083217        2.44548166539066       -2.81554923675918
C            4.57965090452353        3.91110858611991       -3.05655037214356
C            5.12083292685513        1.55330063676379       -3.77700633004678
C            5.16423461647857        0.18419094847798       -3.52259722921129
C            4.72321261501957       -0.25431322623897       -2.27986142692094
C            5.66008999899269       -0.79611317386506       -4.52501930477520
H            4.11915821044369        0.74934504644239        0.73642054862730
H            4.12369441663431       -0.91239664589720        0.09705500607608
H            3.84589542895669        2.55775853050374       -0.81927259219194
H            3.54434257400078        4.24874411786966       -3.02969069826529
H            5.11670723938206        4.45257853505881       -2.27971108623841
H            5.00300593106344        4.17078633613258       -4.02162713630603
H            5.45547366713573        1.92835554446465       -4.73253570904045
H            4.72923970376383       -1.30511634078895       -2.02985947953406
H            6.52292412391818       -1.33409722175428       -4.13478828246024
H            4.89139301404615       -1.53440582755391       -4.74776694089857
H            5.94716264956428       -0.30264159815378       -5.44805759314226
