54
 energy: -67.689824256899 gnorm: 0.000508275371 xtb: 6.7.1 (edcfbbe)
C            1.05532198300847        1.28171197632216        0.49533225854888
C            0.09663039646825        0.26737105046906        1.02498093076807
C           -0.83097697733527       -0.16432810177691       -0.12552982439707
C           -2.05139916312341       -0.94827510231094        0.35570242281516
C           -3.01964029594272       -0.14956698731840        1.23195707443741
C           -3.48407503448530        1.18501005431277        0.64327334521169
C           -4.15389344639791        1.08939177433310       -0.72950559247685
C           -5.40967709475447        0.21568221191319       -0.77181165595507
C           -6.53144466735814        0.64840959837861        0.17386519753968
C           -7.03676914133374        2.07870512532295       -0.02768133547242
C           -7.57205910081013        2.38439150805927       -1.42777531764958
C           -8.77619501789207        1.53210185022331       -1.80973658946432
O            0.92596390427980        2.47958859327097        0.55433117221079
O            2.08597201572809        0.70958336996828       -0.16673810588157
C            3.07799931873521        1.57342197127063       -0.68955293916811
C            2.73458085022312        2.05900058143188       -2.11135511939672
N            1.53008403613380        2.87128873907186       -2.10281878755417
C            0.35697228272699        2.32832308403259       -2.44534740931266
C           -0.81977824780329        3.03803387322243       -2.32440930581638
C           -0.78154353600079        4.33552785605289       -1.83255636091033
C            0.44867463547086        4.88726488239656       -1.49912107495558
C            1.58890902171851        4.12708361050135       -1.64282278603013
H            0.63419414405585       -0.59738241025483        1.41031098743533
H           -0.48629051060860        0.73175774168070        1.81847918459264
H           -1.16821722085164        0.72592034152569       -0.66008096685019
H           -0.25991499329384       -0.78389101949962       -0.82070195126450
H           -2.58250684109526       -1.31038133797333       -0.52619447876970
H           -1.71666407234332       -1.82305229849735        0.91575358636075
H           -3.88984197472653       -0.77786188887987        1.42348171241585
H           -2.55737353906313        0.04928934519032        2.20101867939261
H           -4.18625830690592        1.63405646321589        1.34659099957518
H           -2.63259382289263        1.86884131494837        0.57210674428100
H           -4.41499352147956        2.10044112835718       -1.05122095595004
H           -3.44173549652333        0.69088919918572       -1.45825020834309
H           -5.78645525287272        0.21544698880823       -1.79650114428535
H           -5.13983473512477       -0.81495794582561       -0.53283147419441
H           -7.36474582579960       -0.04393509799945        0.04529598911129
H           -6.19349922676897        0.54809375277519        1.20735435749480
H           -7.83768417689353        2.25526826872473        0.69413115656609
H           -6.23519005390408        2.78443947750964        0.20405553227117
H           -7.86399330523274        3.43727912297300       -1.45468568467175
H           -6.78132092942240        2.24878459857395       -2.16894982484507
H           -9.55691693589670        1.61970098545979       -1.05773036433883
H           -9.18242801749440        1.86046799482633       -2.76365573969846
H           -8.50330332970762        0.48403277028205       -1.90253719747257
H            3.20125160950680        2.42947921306143       -0.01627409723835
H            3.99938707411022        0.98983874823794       -0.72737979108050
H            3.57285976937193        2.64676872340833       -2.49010461774267
H            2.58024945898252        1.19331572362082       -2.75814944678481
H            0.36742677483385        1.31018535701641       -2.80710175994816
H           -1.75431691884515        2.57423692231573       -2.59904151110734
H           -1.69053843475281        4.90267976653078       -1.70841942132121
H            0.52280817514885        5.89201662867214       -1.11549344024273
H            2.56210371524356        4.51265990290057       -1.37742505046036
