26
 energy: -26.693714103325 gnorm: 0.000581202898 xtb: 6.7.1 (edcfbbe)
C            0.94024888144975        0.03659682395824       -0.03716427256559
C            0.60256139226704       -1.44662303911525       -0.04254252041309
N            1.04704242451530       -2.21582297801417        1.15965203321616
C            0.54256212233867       -1.60077222093197        2.42876767016925
C           -0.96745382870049       -1.46494927110662        2.55130615709040
C            0.53293429673406       -3.61945557832645        1.06647080708338
C            1.11159279395607       -4.47038752714398       -0.05428846980434
C            2.52139536618560       -2.23173017258470        1.23193806344551
H            0.42382059293409        0.58030184960786        0.74820166412610
H            0.61261909267329        0.45258526261839       -0.98680073900687
H            2.00788918777894        0.21784821922747        0.04345846118204
H           -0.47706174984742       -1.57147767141871       -0.13707379288870
H            1.07287174691012       -1.90720028994951       -0.91197874464976
H            0.91444046068346       -2.21343507584159        3.25305627268091
H            0.99745931101265       -0.61351616143859        2.51765777409057
H           -1.47394324863127       -2.42529911496875        2.56284670746943
H           -1.17790972423647       -0.97820357486086        3.50054502866671
H           -1.39376096853125       -0.84536162803194        1.76804761414825
H            0.74483211582612       -4.10557870593527        2.02136573608035
H           -0.54908235188957       -3.56658956443047        0.94173746066523
H            2.17879733794320       -4.63623686361916        0.05654347071351
H            0.62756535901106       -5.44297290332168       -0.00906903401834
H            0.91174227400206       -4.05790068440876       -1.03870910566252
H            2.94580517125626       -2.52267464027813        0.27414078674057
H            2.89871460317936       -1.24556922386109        1.49242591696558
H            2.84824734117937       -2.93647526582431        1.99454505447526
