43
 energy: -60.396832558749 gnorm: 0.000576926045 xtb: 6.7.1 (edcfbbe)
C           -0.52511383849006        1.18683766116050       -1.25625860056651
O            0.75537089275734        1.78352130892056       -1.21741559300991
C            1.35408923405865        1.97497050157808       -0.02631599489819
C            0.79903057584312        1.67760304796888        1.21734850514287
C            1.52677490533226        1.91631109615486        2.36964852565801
C            2.79632812376215        2.46127533135204        2.31221155979423
C            3.35720610468128        2.77722032820495        1.07647862310176
C            2.63798994824995        2.52645053229787       -0.08071274925337
C            4.74226246056152        3.36247374055072        0.99307908216523
N            4.76466565399747        4.86720931502857        1.04441505534781
C            4.08473739792078        5.36465071248196        2.26745635885976
C            4.67970883288491        4.87120521504304        3.60114480323921
O            5.70965713458980        4.23361674754582        3.62628992364502
C            3.92314353243253        5.21738807596842        4.80631525087700
C            2.75890603642293        5.99427232512891        4.81073871619924
C            2.11318169073463        6.26059670169660        6.00176341412981
C            2.60735428717166        5.76074171083506        7.19910524285679
C            3.76075274400937        4.99124204287760        7.20739052610928
C            4.41453992454705        4.72343584087241        6.02245661339952
C            6.16618297860057        5.32863533113485        1.00350347161187
C            4.05654471267831        5.41142914016543       -0.12899388221639
H           -0.77742516958931        1.10754015046002       -2.31190571953693
H           -1.27026699899064        1.80829754600221       -0.75103775253112
H           -0.51307274639596        0.18870035744059       -0.81042944728450
H           -0.18585738769834        1.24788227110919        1.29476948288625
H            1.09721363846131        1.66661123970931        3.32712123862287
H            3.35591356992870        2.61543043383007        3.22221026904598
H            3.05457304296379        2.71885899781260       -1.05765419102293
H            5.34955849972829        3.00033307760150        1.82415766198305
H            5.21538515178409        3.06559908396791        0.05555591300412
H            4.12688813942667        6.45701339423408        2.26796992480941
H            3.04028346872555        5.04874250126398        2.22184052405748
H            2.35204061828726        6.40194660715151        3.89845912787716
H            1.21768239781834        6.86250605962822        5.99990721227089
H            2.09258552800026        5.97383630668709        8.12312485132150
H            4.14875333206553        4.60351495545817        8.13649554965465
H            5.31487270416356        4.12776732405595        6.00869404836499
H            6.64540454357768        4.97523341587092        0.09278521826569
H            6.20056702275815        6.41666119564659        1.02004035589115
H            6.71059155121877        4.94145184309930        1.86295576995775
H            4.55123239484382        5.08653495364301       -1.04239131356427
H            3.02719505936687        5.05744086208417       -0.14458513438400
H            4.06066830679121        6.49977071629316       -0.10012244187481
