42
 energy: -46.569296231814 gnorm: 0.000507757760 xtb: 6.7.1 (edcfbbe)
C            2.00929673748305       -0.44393390575555       -0.57803898798666
C            1.10959164104547       -1.61317735861230       -0.95918333065623
C            1.21102851281549       -2.79342424294051        0.00871999493983
C            0.77622584932464       -2.48827924195044        1.44386199167551
C           -0.66649489081694       -2.00139429927015        1.59660698546432
C           -1.73411157114169       -2.93029482634053        1.01251962896398
C           -1.73139208632051       -4.34963730726725        1.59365368136553
C           -2.10436566484936       -4.41502428682500        3.08048965537683
N           -3.46898826188136       -4.94082280340450        3.38794161978384
C           -3.67839070578412       -6.33723052648701        2.89927560574154
C           -2.48804124482267       -7.29027439556677        3.05430862123316
O           -2.03887102075555       -7.29896422991267        4.39008061454741
C           -3.64230230990018       -4.91453593046121        4.85667469543051
C           -4.49867674899057       -4.07407707082403        2.78642845527851
H            1.69078732817886        0.01521496296322        0.35461175250563
H            1.98072092088331        0.31712692365391       -1.35360828311021
H            3.03849004705035       -0.77706960436014       -0.46547665676808
H            0.07535750755489       -1.27008157813094       -1.02777174940412
H            1.39816660947838       -1.96875994693317       -1.95078620784068
H            0.62149390984433       -3.62376201481488       -0.38756402447384
H            2.25103709375417       -3.12521254356927        0.03978510224080
H            0.92857169943141       -3.38426910280778        2.05134267336917
H            1.43069216477297       -1.71885008589637        1.85410997543950
H           -0.85555311220417       -1.83141767559940        2.65994748059412
H           -0.76712655744989       -1.03452592949267        1.10338360597923
H           -2.71108131092948       -2.46357590871111        1.15633215937309
H           -1.57296614630328       -3.01145704859428       -0.06240083180944
H           -2.39823770030939       -4.97226192954357        0.99684361200935
H           -0.72954135420439       -4.75902663086680        1.46758118744251
H           -1.39962440106563       -5.03704536047472        3.63230873037418
H           -2.05076352995426       -3.40907275800361        3.49989906937506
H           -4.52598096767092       -6.74536152087842        3.45286239347061
H           -3.94119945946209       -6.31151186042340        1.84103341653116
H           -2.84690177466336       -8.28185090118937        2.75246444458406
H           -1.67217007941503       -7.00706831268136        2.37646848776630
H           -1.47029571588359       -8.06071801384459        4.54159652042567
H           -3.43468769696081       -3.91823917011210        5.24123834635211
H           -4.66484447168392       -5.18140620333375        5.11647890773474
H           -2.96348963161084       -5.62917864139940        5.31722148755170
H           -4.41887519030811       -3.06906633483332        3.19678707050469
H           -4.37648170747397       -4.02265149263714        1.70724613086649
H           -5.49123470874675       -4.46295089189915        3.00745596774959
