27
 energy: -28.849068355147 gnorm: 0.000385676217 xtb: 6.7.1 (edcfbbe)
C            1.83082862246573        1.02147569953262        0.19905074173214
C            0.70907107515996        0.45075179129089       -0.66531234925632
C            1.29923338143971       -0.51113608898316       -1.69530249311793
N            0.30978503020484       -1.31673875741313       -2.46609652546709
C           -0.67607603854304       -0.43231070547991       -3.11321216212398
C           -0.38925584818194       -2.32797555404886       -1.59883909192595
C           -0.07813258328028       -3.70749854883147       -2.18122573553465
C            0.23622250735434       -3.40640981233674       -3.64258222150054
C            1.02131232560770       -2.11063951069560       -3.51971764303568
H            2.34213441859156        0.23398390072861        0.74688579036791
H            1.42217646001424        1.72429769350474        0.91827318842750
H            2.55982377578380        1.54676948249844       -0.41223315846701
H           -0.00863774654613       -0.06117727569090       -0.02216110780534
H            0.19749542801649        1.27711546021762       -1.15892725850681
H            1.89418597938161        0.05853774948193       -2.41328385295331
H            1.96412559372956       -1.21291459071439       -1.18554305487236
H           -1.30492839513242        0.04685926426333       -2.36661809046994
H           -0.16444951946312        0.33798336795567       -3.68798422695157
H           -1.30710567494383       -1.01248887286463       -3.78342815949254
H           -1.46031672029707       -2.13307919637258       -1.62194112697482
H           -0.04638465737082       -2.23775025147787       -0.57025244737298
H            0.79159881249751       -4.14764347608438       -1.69394071481873
H           -0.91456779087530       -4.39094735661043       -2.06182328892245
H            0.82253660744144       -4.18955028853944       -4.11540312097108
H           -0.67703853039714       -3.26902576909476       -4.22100986176267
H            2.03207809900253       -2.32796885856947       -3.17103318071845
H            1.08307538834008       -1.54120949566454       -4.44529884750581
