39
 energy: -45.021356569017 gnorm: 0.000568717673 xtb: 6.7.1 (edcfbbe)
C            0.62841245768075        0.26665155704553        0.23210161547296
C           -0.17012703061773       -0.88923985195707        0.81988732719639
C            0.08760672371360       -1.23490952362972        2.28890203355496
C           -0.63027978659418       -0.35814638637206        3.32088583777287
C           -2.15872613762240       -0.39901345158845        3.24282023406892
C           -2.74146706446810       -1.79123511240195        3.44948608215848
S            0.09595235034446        1.94332607997527        0.75680875757568
C            1.18493841549242        2.43630761635851        2.02129390983995
N            2.08942374494153        1.61056885490729        2.53020599926236
C            3.02793520332025        1.92312581326928        3.59794732518690
C            2.40181163854593        1.75452612518271        4.97842774263805
N            1.07263912555099        3.69058864652298        2.41869682467598
C            0.15333663228996        4.66017389650804        1.84694199677655
C            0.37142703512392        6.01714991727812        2.48979498950945
H            0.45430772067087        0.30425828772361       -0.84474661362010
H            1.70164157032068        0.17197287396758        0.39235997723657
H           -1.23296617781849       -0.70105189436301        0.66977594290274
H            0.08854724261686       -1.76266208719903        0.21592555622195
H           -0.24073992596888       -2.26241164976488        2.44574529882780
H            1.16605094767321       -1.22909679736868        2.48488613539752
H           -0.33050845358406       -0.70557569115716        4.31246311720103
H           -0.31655722279147        0.68423261026111        3.23377764822024
H           -2.54556185606201        0.26272342093427        4.02066524022379
H           -2.49819067352220        0.00195987348551        2.28578358978702
H           -2.35884331816203       -2.23306164880040        4.36641868032865
H           -3.82351907461581       -1.73150488056307        3.52754620739804
H           -2.50319108359284       -2.45112239368931        2.61951427948899
H            1.99030543600962        0.62685188116953        2.31548192220783
H            3.87061365674528        1.23845098599359        3.48847285994772
H            3.40753573593266        2.93809109652860        3.45918432436723
H            2.07115636470237        0.72954968167423        5.12382119959357
H            3.13865439304197        1.98528773777108        5.74158822483233
H            1.54721487165489        2.41323586816652        5.11269998788749
H            1.66067630827941        4.02998837499561        3.16836934832020
H            0.31957709822936        4.71543561104006        0.76672525004040
H           -0.87384386253325        4.31920351430847        2.01162551046531
H            1.38404818839551        6.37114123946500        2.31474583187021
H           -0.31686924338984        6.73779653305729        2.05949455459533
H            0.18798805008884        5.97342327129238        3.56036525057869
