22
 energy: -30.270847993211 gnorm: 0.000770796325 xtb: 6.7.1 (edcfbbe)
N            1.18147117408303       -0.66195686525278        0.23252433527626
C            2.27280943832366       -0.36533312201558        0.07276261217336
C            3.68024221246337       -0.07543889500297       -0.05351784583200
C            4.34781246794241        0.07166776626835        1.32287178239485
C            3.91842248474323       -1.00522838031381        2.33071507243076
N            4.18519046651697       -2.35348803471014        1.85036128255383
C            5.44910777942353       -2.79651443196050        1.81728133470496
C            5.75319398695206       -4.05592712920651        1.34666101706126
C            4.72579591438115       -4.88062299448445        0.90217629932968
C            3.42256799609493       -4.40429886066376        0.94818838906042
C            3.18212316037339       -3.13217669396649        1.42937040846497
H            4.13986256797768       -0.88209008158599       -0.63401017161724
H            3.79888533725559        0.85057252051374       -0.62039249307815
H            5.43079466307355        0.06281738994835        1.18982148815845
H            4.07394711202693        1.03429876170289        1.75698288168763
H            4.46027147715124       -0.85255399965507        3.26743955440846
H            2.84899681866979       -0.91151128635320        2.52822759672721
H            6.21637316311731       -2.12898336953641        2.18186018446873
H            6.77929015977392       -4.38746005575700        1.33356356649798
H            4.93766398344263       -5.87186051413936        0.53266945262939
H            2.59374469574363       -5.00998124061454        0.61772164951413
H            2.18063294046986       -2.72731048321572        1.47110160298499
