37
 energy: -53.329647425959 gnorm: 0.000527199753 xtb: 6.7.1 (edcfbbe)
C            1.27338088405900        1.11471284875565       -1.26491559088698
C            2.31338131892182        0.27079896647813       -1.98165312303482
O            1.73988424073616       -0.96850654240331       -2.44760261122289
C            1.70991703373754       -1.98380567383343       -1.62270303883406
O            2.14716059675335       -2.03752911935611       -0.50460844675646
C            1.00571064033692       -3.19360647264457       -2.27931792880829
N            1.27678710525506       -4.37919497037511       -1.51709635579189
C            2.21803988395457       -5.33894909448927       -1.84461356686191
C            2.99178477975262       -5.53951802044498       -2.97952545183405
C            3.84228123520970       -6.62678821814146       -2.97327706338932
C            3.92496842262908       -7.48805531790087       -1.87733955415131
C            3.15972586419182       -7.29632754657056       -0.74492620864800
C            2.29913397699711       -6.20629790587482       -0.74282374605375
N            1.41059105897370       -5.73087696481097        0.20393261537734
C            0.82841807065333       -4.62875386371334       -0.27680755276161
C           -0.17428578853546       -3.80867128029246        0.42824690466904
C            1.24998067080791       -6.29894662518015        1.52565449195757
C            2.19964431405082       -5.63922629349463        2.51977428036032
H            0.42176801721703        1.30080243352531       -1.91441709954886
H            1.71642953902100        2.06583017648738       -0.98678008004142
H            0.93142086763964        0.61379105516196       -0.36216732930075
H            2.67029318459491        0.76583418038476       -2.88540040170824
H            3.15271199427681        0.04175518098566       -1.31933191294890
H           -0.06742200111050       -2.98648609901319       -2.31807059891647
H            1.36779808883996       -3.31687372935020       -3.29971826012264
H            2.94103914358015       -4.88166590773985       -3.83157408388137
H            4.46119996915101       -6.81637733051911       -3.83548554777078
H            4.60651053888666       -8.32244913022407       -1.91801249563291
H            3.23553385720840       -7.96505444321835        0.09644872894723
H            0.31376813213021       -2.94248889418711        0.87832433554856
H           -0.93053867349548       -3.44314219338745       -0.26366431128673
H           -0.66355283451779       -4.37298974799825        1.21695608027642
H            0.21414343716520       -6.17619499699538        1.84712831709140
H            1.45780485385089       -7.36777923592614        1.45288672657777
H            2.00622975977137       -4.57225219417341        2.59067840973488
H            2.06327077714473       -6.08191068377818        3.50162224208930
H            3.23299704018230       -5.78403634572721        2.21570922755591
