36
 energy: -49.658231501912 gnorm: 0.000886481260 xtb: 6.7.1 (edcfbbe)
C            0.74547332701753        0.74447160146834        1.08473447520718
C           -0.31140268028426        0.09736824875074        1.53579646035566
C           -1.38274648560650       -0.47959855864692        0.64534568809438
N           -1.80037259762806       -1.77974723552689        1.12821643419938
C           -2.81622513046911       -1.94436675439883        1.96182241764054
N           -2.92704264616793       -3.20998026754578        2.35525706689444
C           -1.90411894379116       -3.91975898708136        1.75661305518954
C           -1.17531365234871       -3.00608139902452        0.96557541561547
C           -0.06398282799827       -3.42265526515548        0.22029628900708
C            0.74932634980433       -2.51560361127837       -0.64277498895621
C            0.25407948967368       -4.76759867391787        0.32412966103369
C           -0.46901512035623       -5.66722755601612        1.10591726543406
C           -1.56337758049973       -5.26319417249855        1.83976561441747
C           -3.80778491421606       -3.71587295554908        3.39716539351818
C           -3.06047167643709       -3.61390921121215        4.74996118713544
C           -2.47159371853813       -2.30276607640389        4.86243035940186
N           -2.00704814193416       -1.25968504302880        4.82470033112153
C           -5.12791667948452       -2.95632007532411        3.43216469947333
H            0.92167916562628        0.89646261135629        0.03202577516184
H            1.46981253190786        1.17078747390796        1.75537259748415
H           -0.48395411944456       -0.03058245906452        2.59591386244589
H           -2.25866980134384        0.17667502202447        0.66647372741024
H           -1.03610171982954       -0.56006101457435       -0.38435298309940
H           -3.46674153552781       -1.14852232504342        2.26899098881217
H            0.16222988101473       -2.15554029463878       -1.48681094432341
H            1.11216726666210       -1.65986555104649       -0.07671852196854
H            1.60546085139323       -3.05262735278963       -1.03999705728726
H            1.10359288791797       -5.13738666689894       -0.22841557718573
H           -0.16155966700850       -6.70016473492490        1.13543896216739
H           -2.12261894162787       -5.96035473891697        2.44122115175630
H           -3.99907795608748       -4.76955483530564        3.17078971105212
H           -3.75541611947927       -3.78235200819824        5.57468514721358
H           -2.25949713387846       -4.35648547684039        4.81093597646503
H           -5.56734679359515       -2.90204813356558        2.43866588915363
H           -5.82748670872108       -3.48048594945106        4.07817306049914
H           -4.99976845870778       -1.95003757363447        3.82477140946645
