19
 energy: -23.930327821069 gnorm: 0.000469076371 xtb: 6.7.1 (edcfbbe)
C            0.89314652672140       -0.07741330016833       -0.12062654429469
C            0.47317449880678        1.27613605600636        0.42433268540899
N            0.89528851140578        2.38479875658273       -0.41510174877582
C            1.60723361185247        2.31775024075499       -1.58081366945261
C            1.77982100453983        3.58845640186756       -2.02776294271381
N            1.16847829563229        4.40811370604422       -1.12378259959883
C            0.63381552244291        3.66751203594298       -0.14729677535301
C           -0.11193835475831        4.17432221978943        1.01799243166500
H            0.45371279844617       -0.26499466118399       -1.09682713684636
H            0.53985481556543       -0.84884404357860        0.55768490542240
H            1.97481202979919       -0.16050495789116       -0.18538886786074
H           -0.61678322386040        1.31752006277575        0.51599488200818
H            0.90124148584829        1.42423525842602        1.42089632785713
H            1.93815016139194        1.39583505221453       -2.00942941874801
H            2.28010572130190        3.95523248855438       -2.89966487098785
H            1.12717986275102        5.41601302902083       -1.18367845121081
H           -0.17294764195800        5.25888263985069        0.99238216304006
H           -1.12439158690148        3.76884425513256        1.03396151517102
H            0.37403596097277        3.87441475985902        1.94708811526971
