32
 energy: -45.242130703790 gnorm: 0.000332737576 xtb: 6.7.1 (edcfbbe)
C            1.32166863156580       -0.27056735619690       -0.22792398546700
N            0.56754878892201       -0.13663493039351       -1.44493437993213
C           -0.35723129518875       -1.02572702800922       -1.90148010411470
C           -0.83503326917614       -0.54269411824333       -3.08142200087718
N           -0.19046647113342        0.62936649496786       -3.33093788991981
C            0.64855427504708        0.85763667731361       -2.32640036755382
C           -0.47583361808533        1.51689171090699       -4.44171776510536
C           -1.78607801721818        2.22959615690005       -4.18983909137719
C           -1.83625895125135        3.23672238205777       -3.20603723623045
C           -3.00902539301804        3.88233146755936       -2.93808226266834
C           -4.19154969861446        3.55459383155211       -3.63399463702655
C           -4.14463944685419        2.53819256092078       -4.62543463303947
C           -2.92012483910948        1.88641546990121       -4.87687740289989
C           -5.32322492481193        2.20947356785673       -5.32670261394464
C           -6.49504508166466        2.85967154108590       -5.05669303751914
C           -6.54164337330326        3.86479820104462       -4.07741359221710
C           -5.41583929011966        4.20591877425856       -3.38046181458221
H            0.64612321603598       -0.42101352256192        0.61430430005646
H            1.91164636920852        0.62666788531689       -0.05637109138186
H            1.99112489518488       -1.12948986391159       -0.29209595583057
H           -0.60673672902266       -1.92100257652541       -1.36968149199848
H           -1.57541463887467       -0.94252805034467       -3.74326863117891
H            1.29871160288073        1.70669607629643       -2.24214230431397
H            0.34422387380982        2.23239016919675       -4.53092852005346
H           -0.53529339260553        0.92282252770872       -5.35585418420342
H           -0.93416607489218        3.50403928353958       -2.67366605849425
H           -3.04470672719829        4.65937615331395       -2.18952873831683
H           -2.89158320019552        1.11962208998273       -5.63847504604365
H           -5.28308541109032        1.43810685091528       -6.08163580813133
H           -7.39414386994302        2.60569103336086       -5.59667132243294
H           -7.47597945416945        4.36756411828247       -3.88067254997575
H           -5.44663848511341        4.97984242194431       -2.62817978322593
