20
 energy: -25.522502384454 gnorm: 0.000846356797 xtb: 6.7.1 (edcfbbe)
O            1.61901424164694       -0.30825796329987        1.05511642074531
C            2.55825145337475        0.03169282225849        0.43659353002610
C            3.26984770442400        1.31596555669360        0.38506025448989
C            3.16467547080880        1.99862164014387       -0.99698109445814
C            4.26708659512445        1.59096162206460       -1.96733962423994
C            4.19485704160945        0.13751823105730       -2.42717125405374
C            4.37291238861409       -0.87574731835345       -1.30316511520702
N            3.11648714950428       -1.07998831812769       -0.53595216466224
H            4.32260562560263        1.18712113115227        0.64346994422833
H            2.80957070720020        1.95130133618344        1.14475360711435
H            3.24185003707940        3.07212953808765       -0.82900548959044
H            2.18140784120996        1.81275394399767       -1.43157235554269
H            5.24069659453867        1.77944272152117       -1.51217973551860
H            4.19531581475291        2.22876174605176       -2.84840592905841
H            4.99018870219644       -0.02872442410380       -3.15382327411564
H            3.24899076288002       -0.04630963670530       -2.94179771091074
H            5.16141158805124       -0.56399071231108       -0.61669920207514
H            4.65582105986410       -1.84265630053302       -1.72522310328721
H            3.18603166280887       -1.92369991256252        0.04959827004713
H            2.35019755870884       -1.26454570321513       -1.19995597393115
