45
 energy: -49.736006400967 gnorm: 0.000195106297 xtb: 6.7.1 (edcfbbe)
C            3.92894009955952       -1.00772702622563       -1.71762384595856
C            3.89498754219186        0.15363761184803       -0.73144452937693
C            3.59165016973203        1.50073198858236       -1.39061518557683
C            2.26120497475200        1.57792421646043       -2.14160235038282
C            1.05545179896578        1.34428256394164       -1.23330145181495
O           -0.18016781066092        1.43530219077449       -1.94966638175940
C           -1.02058321592468        2.54584006008039       -1.74700648773711
C           -1.75704331647721        2.48352014709012       -0.38315459579880
N           -2.71452517083255        1.34992315206318       -0.19225927337670
C           -2.00159367763808        0.05940819050671       -0.14564299890744
C           -3.41660729181157        1.55548670083413        1.09034625858967
C           -3.71499827612003        1.30639049208597       -1.27503563895242
C           -0.33683692743202        3.91501726536145       -1.90272164387002
C           -0.01419946595381        4.21751120523351       -3.37041154930817
C           -1.22528986505764        4.72063165069620       -4.14658543357209
H            2.94468125783493       -1.20334653504329       -2.13624316655907
H            4.26826278339314       -1.91186575668387       -1.21867281203717
H            4.61427107811899       -0.79168042323726       -2.53329502818026
H            3.16642581904063       -0.05308736838489        0.05579382402248
H            4.87167715646915        0.23366133606442       -0.25042602340898
H            3.61246736079160        2.27865409236656       -0.62269881461168
H            4.38750562752866        1.72396348156182       -2.10308880462342
H            2.18145569839450        2.56511661471671       -2.59795623377951
H            2.23738768031934        0.84173460781242       -2.94447200825962
H            1.09220837861299        0.32428323881152       -0.83760207992517
H            1.07773375781630        2.04123570435275       -0.38919116527650
H           -1.75459915280368        2.45881034823801       -2.55453155771730
H           -1.01439467974519        2.42439950598730        0.41563094955779
H           -2.32009444957809        3.40999518943147       -0.26159447512809
H           -2.71522780502389       -0.75613158437771       -0.04635062625609
H           -1.42497610053902       -0.07149960485272       -1.06043612389785
H           -1.32263620303419        0.03787360941999        0.70481376538222
H           -4.01996577391605        2.46087012029968        1.05237875415050
H           -4.07029542956832        0.70991852261188        1.29800130334509
H           -2.70030284958846        1.64692504830647        1.90501363506998
H           -4.16169784511687        2.28896179234166       -1.41696448039987
H           -3.25276609621944        0.98390535669109       -2.20507243504896
H           -4.50137641199937        0.59775733688316       -1.02066405947693
H           -0.99678114485154        4.69469336559141       -1.51946712252022
H            0.57677992434805        3.93795185459816       -1.30932897272217
H            0.76441732063166        4.98011983815981       -3.40650327207791
H            0.37528520683490        3.31647361120307       -3.84646193783816
H           -1.61493730344099        5.63250133582140       -3.69975531310460
H           -0.94162584913298        4.94118191731537       -5.17143444590999
H           -2.02226152287454        3.98043303464732       -4.17379616497307
