92
 energy: -96.289104760438 gnorm: 0.000419172700 xtb: 6.7.1 (edcfbbe)
C            1.32794251499631       -0.28804420724076        0.94592598866016
C            0.78398211173217        1.02054184004842        1.50661508876218
C            0.95268045077543        2.20280836106173        0.55107132497939
C            0.20225052360735        2.07139245828036       -0.77566766824265
C           -1.31944209829764        1.96960155817581       -0.65296928436047
C           -2.00301200002737        3.17085973370889        0.00483265134011
C           -1.70489136447296        4.52419170064451       -0.64578991281074
C           -2.01936913440064        4.60183468602344       -2.14062686109751
C           -3.50348261769819        4.49358868087590       -2.49464734177584
C           -4.35130743129306        5.70582853855673       -2.09943924453857
C           -3.84680309860762        7.00034011923175       -2.74675651434314
C           -4.95862836620406        7.98799714510205       -3.10304994930508
C           -5.75446499677075        8.54470509283108       -1.91918064798889
C           -5.06235284136351        9.43958158581092       -0.88305865450059
N           -4.51415072722788       10.76956520875369       -1.31115170575308
C           -5.33548076225269       11.37538210575151       -2.41381377725148
C           -6.83231845049283       11.57734248677578       -2.12791612637907
C           -7.26350938311083       13.04540142125210       -2.23396404259454
C           -7.17046272418912       13.62236214835546       -3.64857459135419
C           -8.10999779400574       12.94617973035718       -4.64007953849633
C           -4.54400467618995       11.75193977242821       -0.17763108419969
C           -4.25966463959455       11.23355419133684        1.23423392857770
C           -3.86890581179975       12.39313179000294        2.15952516617455
C           -4.91952550566299       13.49877805841787        2.28689466952211
C           -6.26348146560151       13.00420178492359        2.80882704554084
C           -3.11561910111641       10.62324952087052       -1.86577262343531
C           -1.91125726374042       10.64684076239380       -0.91390729900084
C           -1.50545501748645        9.31299723507763       -0.27226756605952
C           -0.63437692651482        8.44948741284960       -1.19090997356493
C            0.81627082165630        8.91460075564700       -1.22455878177936
H            0.75274134180354       -0.61648940737388        0.08415875725157
H            1.27889438637997       -1.06951860512532        1.70049198119111
H            2.36622518178826       -0.17006884086043        0.64312363419552
H           -0.26952908570093        0.89674812407633        1.76347181736127
H            1.31750580235098        1.25514277394575        2.43113071779069
H            0.63103810858088        3.11368081985590        1.06119852827070
H            2.01655660646409        2.31627716445060        0.32646090392197
H            0.45879741628999        2.93032249010844       -1.39992424349510
H            0.56004018399423        1.18306298591554       -1.29880394173248
H           -1.73411218996498        1.82246989841482       -1.65277588331745
H           -1.57333081129576        1.08000532975042       -0.07415628126422
H           -3.08116427245192        2.99412902385722       -0.00347654039208
H           -1.69876436857149        3.22668042133438        1.05204204349371
H           -2.27139597083569        5.29255803745596       -0.11169953865498
H           -0.64572990922628        4.75270547573471       -0.50956613192781
H           -1.62168831355524        5.54052319201947       -2.53311117767955
H           -1.48960022786114        3.79801299681667       -2.65164498844284
H           -3.58790726861092        4.35877181733003       -3.57587161715708
H           -3.92333205515739        3.60399479088953       -2.02455887665441
H           -5.37577220791144        5.51310170884577       -2.42618733302435
H           -4.36714722468960        5.80606202243293       -1.01278960459195
H           -3.11121735568797        7.46746029907242       -2.09229200554042
H           -3.33876466986227        6.74530344741821       -3.67915140691090
H           -4.54222297948625        8.79282908285467       -3.71425038038823
H           -5.67612895114139        7.46406563525053       -3.73856490869574
H           -6.63874899581944        9.04708665115535       -2.30753522917261
H           -6.11437682363752        7.68950119263117       -1.34230299176440
H           -5.80662536282260        9.63287589692418       -0.11029947709153
H           -4.24561459785443        8.88725225250443       -0.42369112390352
H           -4.89425296155779       12.35201517241011       -2.62483485499018
H           -5.20424704378093       10.75451620061111       -3.29857557360937
H           -7.42155170021352       11.00697482812108       -2.84514169213204
H           -7.10025588601856       11.20682834492114       -1.13851214095084
H           -8.30062163774099       13.11686859832511       -1.90236548124789
H           -6.66255279413929       13.66182225825758       -1.56033470942695
H           -7.42643876797982       14.68129625681255       -3.59210673820602
H           -6.14575458361299       13.55783583844116       -4.02162765969261
H           -9.12880103385025       12.94487105509020       -4.26107187490829
H           -8.10044969491824       13.48381916738308       -5.58389134903185
H           -7.81234384898980       11.91966856876801       -4.84118490769282
H           -3.83168799267201       12.54073143448022       -0.42855866251206
H           -5.53490008014480       12.20219225749286       -0.16255417883078
H           -5.14275861423624       10.74767329186544        1.64838754229791
H           -3.45113328247285       10.50614378294782        1.24355272690609
H           -3.67930294213286       11.97815604417759        3.15035204966046
H           -2.93443285910212       12.83769602993976        1.80828783583675
H           -4.52987900542519       14.24243565364951        2.98339377644052
H           -5.05925714863309       14.00367401860584        1.32862543276927
H           -6.13242110756660       12.46109000522610        3.74121027023348
H           -6.92074646742872       13.84820427594472        2.99861419283833
H           -6.76119042186937       12.35070606782917        2.09516977583229
H           -3.09105618546991        9.69890429424230       -2.43975490234138
H           -2.97804319611890       11.45411263695782       -2.56053240950522
H           -1.06711401256194       10.97269107690303       -1.52521854453564
H           -2.03354629170480       11.40852153939838       -0.14825009793993
H           -0.93377217324099        9.52594670189964        0.63272142200643
H           -2.38001481177871        8.73870275233331        0.03723758746697
H           -0.65978510271744        7.41944776448761       -0.83231699737157
H           -1.03662673124251        8.45753883112707       -2.20660493068771
H            1.39735968885977        8.27610547313404       -1.88394727036186
H            0.90120466188315        9.93703398060159       -1.58537494063548
H            1.25425641835997        8.86509744168358       -0.23081007240697
