65
 energy: -67.428609465561 gnorm: 0.000232608471 xtb: 6.7.1 (edcfbbe)
C           -0.28452517479217        0.16549656599037        0.55313518996681
C           -0.15227600133422        1.24477403938360       -0.51463988308663
C            0.93263967698358        0.94087028627793       -1.54951617680116
C            0.72762215469329       -0.35227072301010       -2.34370938963538
C           -0.58604079440696       -0.43245131707389       -3.12507671899391
C           -0.74512979891223        0.64197851695478       -4.21113184394277
P           -0.20485461186937        0.10769086137611       -5.87252525944933
C           -1.16202276061370       -1.36853155672121       -6.38556702345229
C           -2.64596836847257       -1.36030780324591       -6.01366166577569
C           -3.45603065419526       -0.25051372920280       -6.68240169976239
C           -3.59903301714357       -0.38185320619341       -8.20101097549131
C           -4.34280778769305       -1.63470341595568       -8.66973388422314
C           -5.77926597451042       -1.70853615360410       -8.16699602338848
C           -0.37399387857650        1.43152273604923       -7.13892527643686
C           -0.76483770942618        2.81858353745004       -6.62188588360793
C            0.39925159279575        3.58991732840248       -5.99892222981101
C            1.41034600565181        4.13121654222354       -7.01349228630524
C            0.87027485242295        5.22295255286377       -7.94001361296201
C            0.43681918895659        6.48436671386929       -7.20316082968706
C            1.52898910887325       -0.48050355094415       -5.88775391036478
C            2.57002977545899        0.58491562001836       -5.56689826652308
H           -0.66094949867411       -0.76581284738286        0.13697005113544
H           -0.97559992202216        0.48966316523856        1.32654932890647
H            0.67886990631186       -0.02829102299538        1.01834526585198
H           -1.11507241565258        1.39424426984549       -1.00817169156373
H            0.10754154805179        2.18736375134798       -0.02917829943812
H            1.01532991982100        1.79422119055479       -2.22871663269455
H            1.88972408294968        0.85762571678029       -1.03083681740120
H            1.57349593669424       -0.47721234009035       -3.02180335998243
H            0.74961168984706       -1.19229892616196       -1.64889306290865
H           -0.66808745186797       -1.42954351304053       -3.56565593746111
H           -1.41033768134037       -0.32868187431167       -2.41912215267681
H           -1.79776178125583        0.91847590556847       -4.31914718833942
H           -0.19950617368311        1.54603898280779       -3.93874818545638
H           -1.03661482314519       -1.46773386896041       -7.46736208587380
H           -0.67518391085774       -2.23285934741719       -5.92285985227233
H           -3.06639818240976       -2.32761394393414       -6.29105608736158
H           -2.74759898501571       -1.26900918407146       -4.93040977403549
H           -4.45353561206496       -0.24578925810379       -6.24263276705756
H           -2.99891353134752        0.71730675116715       -6.45070575460758
H           -4.14171671420632        0.49461561006347       -8.56154772514774
H           -2.61442216497589       -0.36959372466402       -8.67718717704732
H           -4.35378149418146       -1.62379770616579       -9.76135640727340
H           -3.80140015874737       -2.53238440419132       -8.36434539391209
H           -6.31833880606227       -0.79850912410154       -8.41945148429711
H           -6.29192388376654       -2.54662713416014       -8.63105252847130
H           -5.81906752370514       -1.84836999819535       -7.08957837740635
H            0.57828059458521        1.48664018257585       -7.67216932393304
H           -1.12436667585157        1.07933299040311       -7.85040786558282
H           -1.15623887912155        3.39232929058967       -7.46239179050021
H           -1.57506528420745        2.73029203867766       -5.89521094951648
H           -0.00294156014904        4.42777973840586       -5.42990775221214
H            0.92747171590774        2.94087549040808       -5.29517602314692
H            2.25648386288812        4.54077096611559       -6.45798581563316
H            1.79474457735198        3.31499065381674       -7.63133923236946
H            1.66482267306645        5.48331383546827       -8.64176347044347
H            0.03510333004235        4.84080363411830       -8.53050731884475
H            1.24199013457659        6.85334200513237       -6.57242887457140
H            0.18184034317168        7.26184003881109       -7.91807114204223
H           -0.43679437651017        6.30420923251656       -6.58163586627888
H            1.59773002157756       -1.30985526761043       -5.17851474487595
H            1.70128346891225       -0.88763592968182       -6.89003325034463
H            2.41736393906467        1.00598039111349       -4.57601486849691
H            3.56169739381990        0.13937763050779       -5.59028747763583
H            2.55251652821628        1.39308210839531       -6.29340248694508
