41
 energy: -64.273363169242 gnorm: 0.000357252214 xtb: 6.7.1 (edcfbbe)
O            1.54334408438789       -0.27241520359482       -1.15143012666954
C            2.48938692224171       -0.44847339796934       -0.41366365490698
C            2.48144800105473       -0.22114472965116        1.00151984576251
C            1.40722163694020        0.23777166418326        1.74159400696760
C            1.70400340296620        0.37347505994924        3.10063142083142
C            2.99237375097961        0.02240106892746        3.39423654319704
S            3.86859267780167       -0.48245586361189        2.02366967693753
C            3.83705640154295       -0.93087260489447       -1.01862314606283
N            3.57910000820968       -1.39634110062612       -2.34747360041353
C            2.98667482703778       -0.65136366123190       -3.28038244923898
N            2.63270918781780       -1.38390536467296       -4.32922755160264
C            2.97227943519760       -2.69386803690644       -4.06349673188425
C            3.57215093974739       -2.70520969013415       -2.78882268921715
C            4.03186622362906       -3.88506346034486       -2.21802175310140
C            3.87300892463628       -5.04095290881168       -2.95432435151060
C            3.28039102498668       -5.03079817870121       -4.21987887296158
C            2.82152101490178       -3.86522618761626       -4.79686473120545
C            1.89076563031420       -0.89043212640165       -5.47086504529103
C            0.46544301598288       -0.57697054843477       -5.07055891164662
C           -0.06066184766329        0.69041879006565       -5.27176620212754
C           -1.36184605996994        0.97086389957224       -4.89134136547450
C           -2.13750377609305       -0.00883389501076       -4.29628066479134
C           -1.61376029213713       -1.27404051181358       -4.08911676081414
C           -0.31761068955052       -1.55942072303019       -4.47718925567432
H            0.45528826020773        0.45974946616989        1.29414231234129
H            1.00271446607901        0.71563166555811        3.83920178836841
H            3.47575545885935        0.03462044842723        4.35193837898072
H            4.52589291015736       -0.08073661286945       -1.02997787308792
H            4.27199957353155       -1.73045265813490       -0.42024544067226
H            2.83766752440887        0.40909168542454       -3.21098644266798
H            4.49344825379457       -3.90540948250485       -1.24428280346972
H            4.21416441077321       -5.97811765231455       -2.54485575796740
H            3.17976343300987       -5.96027729555774       -4.75699873965159
H            2.36461761546372       -3.87002899561356       -5.77305423975084
H            2.38122431364092        0.00821046844955       -5.85308283907045
H            1.91540306360912       -1.65795060486051       -6.24726020538707
H            0.54185704080370        1.45792305229582       -5.73563599735965
H           -1.76654345478099        1.95714435441627       -5.05733381315255
H           -3.14952338789035        0.21210165305054       -3.99514617690140
H           -2.21553083812934       -2.04136712238730       -3.62721417150252
H            0.08476691147837       -2.55023465875127       -4.31797160810552
