52
 energy: -77.241614716173 gnorm: 0.000374345804 xtb: 6.7.1 (edcfbbe)
C            1.33634655419744       -0.42125195705180        0.13784182814153
C            0.97715169902717        0.82352345314124       -0.66462012801753
C            1.32530348197799        0.70700223973053       -2.14963588221897
C            0.60641124172094       -0.42057589116716       -2.89399302208339
C           -0.92143054873502       -0.34461713128122       -2.85965412821186
C           -1.52069013454610        0.94677871690772       -3.42051690829365
C           -1.10595438294126        1.29602243355015       -4.85106201564595
C           -1.55126529153152        0.28039454497638       -5.91008865283198
N           -2.97467749469382        0.01388331360451       -5.87389731325693
C           -3.95758718507101        0.88116057071656       -6.14184874483341
C           -3.77535747692419        2.26176107426740       -6.63511853423287
N           -5.15148848727633        0.31457958837293       -5.91020592038692
C           -4.94149356597070       -0.98407913265091       -5.49084121523705
C           -3.54851388851832       -1.17687233671627       -5.47335661491912
C           -3.00044417064420       -2.40486991120073       -5.12518968856554
C           -3.87316622049369       -3.41615625532354       -4.76522562260894
Cl          -3.24418938462817       -4.94742147426144       -4.32681481507552
C           -5.27221588911569       -3.21173358492219       -4.76159403672696
C           -5.82061200199311       -1.99566049879836       -5.12924461316095
Cl          -6.30738003069343       -4.49685976066397       -4.31067260919514
C           -6.43665382435116        0.96095066316249       -6.06635910258572
C           -6.99162472078377        0.83232603125911       -7.48815000790231
C           -7.81840686027921       -0.43286566516757       -7.66378928605331
O           -8.21803613449666       -1.10790649767525       -6.75559989723846
O           -8.05127212694570       -0.67996177191911       -8.94201346176671
H            0.72812147261761       -1.27281049920122       -0.15702340281526
H            1.17273441727226       -0.24308888856644        1.19770206493292
H            2.38323075375315       -0.67764284569845       -0.00676547735780
H           -0.08595303623810        1.04107646225514       -0.54363675673472
H            1.52834914743797        1.67409943323453       -0.25798193076700
H            1.11323114384302        1.66231902963942       -2.63538947343482
H            2.39978599690898        0.53256137230432       -2.23921735486760
H            0.95451904761734       -0.42583337428538       -3.93014639994506
H            0.90291358293962       -1.37537571475692       -2.45805763350523
H           -1.32654534856868       -1.20381191814087       -3.39782798022234
H           -1.25619070473521       -0.44038912260580       -1.82626824183208
H           -2.61115254556756        0.87584955008087       -3.36150769453271
H           -1.22037657974314        1.77779677070463       -2.78190455942503
H           -1.50333713887366        2.28200435242361       -5.09407092113218
H           -0.02023160593950        1.36390559888773       -4.90831584711693
H           -1.28068173758222        0.64460591570942       -6.90553466125197
H           -1.04271773062769       -0.66823910739853       -5.74717172997477
H           -4.55497475985367        2.52329943212712       -7.34655412301826
H           -3.82275676816109        2.97493229162200       -5.81051550688844
H           -2.80994633832432        2.37141644967486       -7.12151520568482
H           -1.94110364448898       -2.59847044785772       -5.13864720690318
H           -6.89056716293386       -1.86792154004463       -5.16035411952465
H           -7.13809668656970        0.48159706816435       -5.37845686973344
H           -6.33223495353510        2.01038977955472       -5.78807737025721
H           -7.66190939838853        1.66831403629881       -7.69805854010520
H           -6.20754671911528        0.84048923386367       -8.24549601571101
H           -8.62138585940263       -1.45745407894421       -9.06360664928857
