19
 energy: -23.856297495906 gnorm: 0.000826743098 xtb: 6.7.1 (edcfbbe)
C            0.86005123038990       -0.03622562184093        0.12256217206787
C            0.43050105856467        0.21106292911301        1.49842949483564
N           -0.03631292648943       -0.56523534629547        2.35859994366594
C           -0.31578486330422        0.11030599228677        3.55431208297002
C           -0.00100374286640        1.41693928682084        3.44287823276945
N            0.52646279712774        1.63246998166122        2.07943286535942
C           -0.09363593682436        2.56574419770725        4.36627874228705
C           -0.88116961555439       -0.65408422540993        4.68133640023274
H            0.24550120305590        0.51779739700118       -0.58758081772684
H            0.75991291189285       -1.09819022878394       -0.08721384184114
H            1.89877462100637        0.25647124812980       -0.02910916514227
H            1.49389119069144        1.97964092401192        2.08543795431750
H           -0.03379909208088        2.30796110582911        1.54439714262665
H            0.87068075571499        3.06061764619287        4.48197873025753
H           -0.81214567658532        3.30381813597425        4.00772563813914
H           -0.42146609686188        2.22527590968498        5.34345584342692
H           -0.91034310827907       -0.06399138928922        5.59160221472041
H           -1.89041494441658       -0.97855142423124        4.43066331092086
H           -0.28775976518107       -1.55167651856251        4.84112305611317
