22
 energy: -32.242936376794 gnorm: 0.000481590167 xtb: 6.7.1 (edcfbbe)
C            1.18999961944879       -0.17135517571096       -0.01758332511898
C            0.32303918470006       -0.61203187601424        1.15886094631521
N            0.85897254448473       -0.08052137790511        2.40375507315057
C            0.46765615080152        1.12506790794646        2.83495037214619
C            1.01423392394380        1.68595488091734        3.96647058264086
C            1.98269881435991        0.98624358585079        4.68817370845039
C            2.37709213439899       -0.26393901325813        4.21443585343679
C            1.79821972604297       -0.76330831751820        3.06642345894516
C            2.62903093427164        1.69846607458576        5.85996846235947
O            2.74479254707568        2.89802319373684        5.82003963750896
N            3.06292213787970        0.91515643031708        6.86107891258982
H            1.21767678684728        0.91247861629340       -0.09708118900615
H            0.77425771282069       -0.57077914162972       -0.93765174193114
H            2.20720715568922       -0.54049883126145        0.08648861126989
H           -0.69698404451178       -0.24632680737798        1.02977924604596
H            0.29925249730761       -1.70150876218228        1.22020486554316
H           -0.28624265822522        1.63863603385174        2.25636069724311
H            0.71810714758314        2.67003851952077        4.29785456286263
H            3.14317737202873       -0.83880270738754        4.71062487681840
H            2.08559213248886       -1.72417937106828        2.66442141071667
H            2.86181456494295       -0.06669208079485        6.93060914719714
H            3.48284361562078        1.36846821908866        7.65889583081586
