35
 energy: -41.059008552413 gnorm: 0.000588173168 xtb: 6.7.1 (edcfbbe)
C            0.54954330746951       -0.60355300318990        0.94261892319104
C            0.11245165225856        0.14260969184581        2.19768390498160
C            0.79927301549969        1.49947570500333        2.36807224743752
C            0.40223179546013        2.52943194084488        1.30820158500026
N           -1.02539807376419        2.84390993297646        1.34317972533594
C           -1.65572511317547        3.20575672669178        2.46420313653549
N           -1.12273857504505        3.97681712675914        3.42541105122466
C            0.03983678845245        4.82528632766446        3.32581672494503
C           -2.05539204911673        4.15139415498467        4.52994198643301
C           -3.33995179362774        3.49662103768586        4.01376756997229
N           -2.91483690834237        2.86079258809495        2.77618079445299
C           -3.72863392898812        1.81238768791652        2.21364654104615
C           -1.73772604692500        2.67065074457053        0.08940519498526
H            0.26023533278943       -0.07916521453266        0.03495397474587
H            0.09287325200151       -1.58923805350784        0.91814317874359
H            1.62884121042207       -0.73109692910956        0.93489188553285
H           -0.97233480114918        0.27547971352264        2.19121084238826
H            0.35597292843634       -0.46954219701101        3.06726254942943
H            0.57436047013556        1.88716421178223        3.36371812958795
H            1.87923836933242        1.35973135410715        2.30384071876343
H            1.01240438724061        3.42820104597913        1.41495479288540
H            0.60304560719692        2.11711213751325        0.32034781759306
H           -0.04988495874486        5.61890430393612        4.06447133710529
H            0.96017528019936        4.27574432209835        3.53288130170877
H            0.09962092904730        5.28413747848595        2.33915625394745
H           -2.19252114541489        5.21277776807636        4.74474640871432
H           -1.66745925683471        3.66374438938156        5.43003470431128
H           -4.13239714999091        4.22415990776869        3.81063199516056
H           -3.73094336764072        2.74855465659384        4.70634327447660
H           -3.12497303744906        1.12414068254803        1.62921404371466
H           -4.19100361481545        1.25251879803001        3.02813765771505
H           -4.52638280921677        2.22052290108166        1.58851127678594
H           -1.21020811306854        3.23327172679466       -0.68316636500527
H           -1.77725719545288        1.62430203654972       -0.21795196829674
H           -2.74479638717929        3.06924429806270        0.16191680445165
