37
 energy: -45.644608041934 gnorm: 0.000607107482 xtb: 6.7.1 (edcfbbe)
O            0.97921088295131       -0.82848330184170        0.17731729118529
C            0.46480397811243        0.26941339922009        0.89283490863856
C            1.00550257949383        0.27562342957548        2.32850747930983
N            2.48810691573687        0.20658226659018        2.48394881364770
C            3.16199664151242        1.12146976441367        1.49534498882839
C            4.65066524107838        1.26366908241405        1.69636286750027
C            5.46697572578649        0.33331425964788        1.05196919357577
C            6.83816440105120        0.37259041633246        1.19609040197035
C            7.40868793703992        1.35466111425678        1.98435438171438
C            6.62560551571673        2.31999672678000        2.59985484507630
C            5.22998434108980        2.28994315944140        2.45169737062633
C            4.44320846904110        3.39134822989454        3.10011834524401
C            7.28405657334638        3.39073661476894        3.41054680280220
C            2.82313164181995        0.60206426652189        3.86368724203648
C            2.94795613766807       -1.18137769516813        2.28331149018195
H            0.46015334064958       -0.97447572503613       -0.62040308806596
H            0.70759305739009        1.20977738406765        0.37938325142444
H           -0.62717415419250        0.20906100685136        0.97832798906924
H            0.64751529097666        1.19163427398393        2.80292491430695
H            0.58562940822095       -0.57996424747747        2.86101550864236
H            2.66331845468934        2.08878194383800        1.55541151114107
H            2.98574540591094        0.69444735262055        0.50741853233664
H            5.02328925852461       -0.41512168966132        0.41197548821301
H            7.45722529952736       -0.35328516428598        0.69378925737109
H            8.48022396687102        1.38594958127642        2.10688930336281
H            3.39971648566209        3.41527397214346        2.80499923750100
H            4.49723060054933        3.31520443540096        4.18631508338301
H            4.87836835072068        4.35119579582561        2.82781165585854
H            7.13375358758237        4.36756653595045        2.95200545871714
H            6.87391566825382        3.43107107968399        4.41827480621255
H            8.35290653018722        3.21200190458946        3.48029531194456
H            2.31985275963899       -0.05388048041594        4.57163536711624
H            3.89858159187501        0.52616913180439        4.01241758852556
H            2.51420850918847        1.62702677234759        4.05374079685726
H            2.50624729597285       -1.83021119363336        3.03694791844123
H            2.64343583811614       -1.52943926506014        1.29907473840668
H            4.03117647223723       -1.22262513766104        2.37262294691293
