30
 energy: -47.258160363586 gnorm: 0.000862621104 xtb: 6.7.1 (edcfbbe)
C            1.09461787329760        0.40159221396516       -0.06763362110241
O            0.51243425007952        0.33949571075339       -1.37533556484920
C            1.11370108944490        1.06032591987569       -2.32548544855215
O            2.10931477524269        1.70002858961821       -2.18203905761706
C            0.35477991534324        0.91889015316078       -3.65859060585050
N            0.76203836621558       -0.27656925082121       -4.35614255146286
C            0.36536911169938       -1.53005392620099       -4.06593001124889
N           -0.47096608967436       -1.84724594972864       -3.07186987592741
N            0.88657583953095       -2.40026221027698       -4.94612420332911
C            1.68498467815246       -1.68713834705320       -5.83621405034848
C            1.61574081591680       -0.33843062954146       -5.45485739086862
C            2.31767679651240        0.64257076999707       -6.13314236033836
C            3.08279861168928        0.23350705487621       -7.21079125902646
C            3.14603181333026       -1.10324761331211       -7.59595249838959
C            2.45194848534179       -2.08860396669941       -6.91685252379129
C            0.64572233556994       -3.82186382723483       -4.95361066028809
H            0.50183055402801       -0.25640048579650        0.56141948639568
H            1.05688396865585        1.42455967900608        0.30670240443554
H            2.13444064770525        0.07532767980581       -0.10276781486064
H           -0.72202646085979        0.89316378653174       -3.47071137452632
H            0.59781380845575        1.77950087713757       -4.28279779759800
H           -0.61427173480737       -1.18166728542926       -2.32557978490256
H           -0.65125058821390       -2.81587062712781       -2.86854733799548
H            2.28663822166634        1.67713967111000       -5.83462793537746
H            3.64595692100540        0.96733324889511       -7.76414557548292
H            3.75474234581069       -1.37834929279774       -8.44201772283710
H            2.51680459563807       -3.11995150090217       -7.22159211547628
H            1.08259391183342       -4.29496997299062       -4.07183078392078
H           -0.42499495361900       -4.02835679147329       -4.98801998535020
H            1.10706009500891       -4.24899367734654       -5.83959197951279
