51
 energy: -57.412047459601 gnorm: 0.000429988631 xtb: 6.7.1 (edcfbbe)
C            1.30537329938552        0.37382000828489        0.14148707874199
C            1.03831630412534        0.43526546222371       -1.35763966820197
C            1.35029911091384       -0.87557271500683       -2.08123214575921
C            0.51228902884073       -2.07560213189030       -1.63502723907908
C           -1.00035857209312       -1.90072623249512       -1.78363030757249
C           -1.47885879278978       -1.59039069435404       -3.20324945974300
C           -1.10900424784265       -2.63900259244323       -4.25424521482921
C           -1.61518361342258       -4.05286088518993       -3.96247896729033
C           -3.13118885168096       -4.17576112797577       -3.79406053621494
C           -3.95607401490798       -3.69302538855407       -4.98973139909094
C           -3.64408381665120       -4.38364326988066       -6.31568183132277
C           -3.93753345759304       -5.90129705806897       -6.31839792428388
C           -5.38845961613123       -6.14969382280350       -6.15772130581141
C           -6.27461732016440       -5.97970899319656       -7.22967020454671
C           -7.62204555444963       -6.16871665511225       -7.05245367762388
N           -8.12836156870569       -6.51782149690046       -5.85912823447421
C           -7.31121109751074       -6.68593251373937       -4.81238925226517
C           -5.95247077365965       -6.51007050198813       -4.92990020710972
C           -9.55679374306311       -6.69575657003730       -5.72418002192253
H            0.63841374653943       -0.33042533353363        0.63179675287612
H            1.15179861308092        1.35182445612414        0.59108492981105
H            2.33110169785581        0.06730158143058        0.33260905494103
H           -0.00151971659620        0.71861972374829       -1.53093926906178
H            1.66358280858901        1.21799453639886       -1.79387478327729
H            1.22051991992544       -0.72147636816407       -3.15469938713488
H            2.40236678878042       -1.12109220507619       -1.91603740936306
H            0.83465826057841       -2.94833461991269       -2.20760179315616
H            0.72617835755857       -2.28874966765536       -0.58610672761454
H           -1.48651166635990       -2.81190385725682       -1.42627345150542
H           -1.33146170829180       -1.09025988899334       -1.13181746416124
H           -2.56434609444061       -1.46447602300743       -3.17957327330250
H           -1.05701059585860       -0.63507868929514       -3.51961395966204
H           -1.49171152653600       -2.30487463343656       -5.22174453206894
H           -0.02262241849008       -2.68501934457812       -4.34308159260380
H           -1.28003164554638       -4.71245829943423       -4.76670368555506
H           -1.14826911426066       -4.41376840311407       -3.04488202838923
H           -3.36625067084473       -5.22089400185418       -3.57602842850479
H           -3.43909335753829       -3.59602411123206       -2.92296717652981
H           -5.01832313233801       -3.81368101100740       -4.75436774238281
H           -3.77853797027212       -2.62571643314929       -5.12592333004483
H           -4.22721664269796       -3.90947638867900       -7.10790638746724
H           -2.59043778953779       -4.25006842115888       -6.55536902385947
H           -3.60098415769939       -6.30360862546043       -7.27524008032831
H           -3.37389481142405       -6.37634619781995       -5.51736550769676
H           -5.90212189778130       -5.70345575643714       -8.20360218863885
H           -8.32377310870450       -6.04549325095767       -7.86419944122323
H           -7.76115878138171       -6.96581613630591       -3.87143340368185
H           -5.32606194757606       -6.65665300820184       -4.06437169340026
H           -9.92612283503547       -7.37498833993783       -6.49264531335619
H           -9.79864219595708       -7.10589813384380       -4.74646397593401
H          -10.06673911030953       -5.73752596910346       -5.83810716935441
