47
 energy: -48.443498003314 gnorm: 0.000263397850 xtb: 6.7.1 (edcfbbe)
C            0.78444845621516       -0.85163961024729        0.25335507092457
C           -0.25133490434696       -0.71458254376124       -0.86580888405467
C            0.06291145906122       -1.65148535198098       -2.03572525645569
C           -0.08906847009200       -3.12680608674211       -1.68310049329412
P            0.53000082317718        0.27940818410480        1.66434818634133
C            1.19178745367310        1.94924833491144        1.30369182584403
C            0.39072356751792        2.79378992219060        0.31941150551716
C           -1.25016913766386        0.44274959708647        2.03141821816928
C           -1.96223538758723       -0.86414734154110        2.40827101531413
C           -1.99853052407501       -1.12338915963058        3.91612861807069
C           -2.97902484856298       -0.21190054202637        4.64494696035643
C            1.50027145340737       -0.26007218804053        3.12123127684910
C            1.56813854044934       -1.77423437458965        3.35958153390670
C            2.80775301580733       -2.41580518347894        2.72947176984387
C            4.08115824926687       -2.11866484984482        3.51308808836099
H            1.78841771845934       -0.65574314773564       -0.13673782260486
H            0.76940817009764       -1.87143573658373        0.64492301100007
H           -1.24605550313377       -0.95308697611006       -0.48502263838512
H           -0.26857999186096        0.31149345832444       -1.23617170614108
H           -0.62325096240655       -1.41322333882601       -2.84969313033818
H            1.07646501682969       -1.46211707330945       -2.39454918175648
H           -1.07673207226209       -3.32354930894277       -1.27149070759052
H            0.02860291421680       -3.73167643800166       -2.57737896923246
H            0.66093934452124       -3.45134115041998       -0.96549950805779
H            1.25863624724857        2.46590015588061        2.26702815277139
H            2.21221017350226        1.80535082384892        0.93401885177191
H           -0.61955450219971        2.97395231576262        0.67735846802277
H            0.87741421976178        3.75897695102087        0.20074903064674
H            0.34016853576525        2.32780457167165       -0.66067928581278
H           -1.35247882110023        1.18128204757682        2.83107726548516
H           -1.69353743699148        0.87161220987882        1.12781383915419
H           -2.99171212683996       -0.81458800222334        2.04890517522178
H           -1.48572717223943       -1.70752034743221        1.90273109002355
H           -2.30294459372098       -2.15849679191005        4.07782873466293
H           -1.00125547068578       -1.00367852247420        4.34223026203209
H           -3.98472837913631       -0.34599889535046        4.25513433470418
H           -2.99264278375361       -0.45216148323596        5.70415290275280
H           -2.71079699348523        0.83734977738501        4.54395094578596
H            2.51035913355022        0.13938347180206        2.99376821574909
H            1.05595050795943        0.25700711060573        3.97730849335814
H            1.60019949138409       -1.95965538813946        4.43440681217330
H            0.66620422602458       -2.25870105123656        2.97999495801182
H            2.66236002707601       -3.49666299585574        2.70180280971841
H            2.92736609233182       -2.06998502651436        1.70020284635551
H            3.99779833639585       -2.49354762537511        4.52983949746617
H            4.93044941120059       -2.60508973651789        3.04192525128100
H            4.28924749725071       -1.05196266396409        3.55859256608059
