45
 energy: -58.181083850879 gnorm: 0.000332114363 xtb: 6.7.1 (edcfbbe)
C            2.08260111960609        1.08813418542387       -1.17496796994216
C            1.11780777811476        0.92456143499071       -0.00702112595283
C            0.99600834207270        2.18326125256997        0.85510818666368
C            0.33554852340936        3.37112095693774        0.14256962995607
C           -1.15980568914687        3.15333233597135       -0.14974097988620
N           -2.08032369083086        3.95665589113833        0.73710144446422
C           -1.94915286298837        5.44100333291863        0.52582234986580
C           -2.13193118487342        5.90588420996101       -0.89301611099586
C           -1.02272860014733        6.10107603321800       -1.70961228036188
C           -1.18194083211544        6.54489762858665       -3.01133865927517
C           -2.44935257416734        6.79764669183817       -3.50878892913808
C           -3.55623003125568        6.62664450935585       -2.69431186119862
C           -3.39897558197001        6.19151941591038       -1.39108206369129
C           -3.48773210941231        3.54766787340417        0.53423629273388
C           -1.76516723958887        3.67265332131297        2.15409464185330
C           -1.51131123982152        3.26449434533719       -1.65980935868155
O           -2.63513127631030        3.26660069926193       -2.08719810939193
O           -0.43669076124744        3.21716214065209       -2.42133200720441
C           -0.66070112399735        3.18255490948722       -3.83229080608558
H            1.70903533334091        1.80377525127462       -1.90238490238221
H            2.21619321101666        0.13574232950990       -1.68006167667718
H            3.05443627996711        1.42338257021390       -0.82182408636606
H            0.13891551567762        0.62339777822755       -0.38837010832869
H            1.47640638631844        0.11665926223715        0.63269539796305
H            0.45117098528837        1.93585312544482        1.76853910808909
H            2.00036401417760        2.48998394551074        1.15121705454655
H            0.49134974140780        4.27040064896106        0.73670986655157
H            0.86111305631399        3.52974469441074       -0.79640861304547
H           -1.39332272658127        2.10351011777430        0.07634538502525
H           -2.69744612563364        5.91526921686561        1.16467897633929
H           -0.96178890196455        5.74521317412144        0.87682478736541
H           -0.02834066767896        5.92408594907987       -1.32649859370828
H           -0.31297905613427        6.70161032202688       -3.63202494803389
H           -2.57316592155279        7.14032684751577       -4.52413536969537
H           -4.54383346560359        6.83966299241688       -3.07126203351335
H           -4.26786811098146        6.09028937958471       -0.75808606758720
H           -3.59402111886225        2.48063155748157        0.72098812245372
H           -4.12719067364228        4.08951125638499        1.22806630031311
H           -3.80188876474301        3.75029174974646       -0.48665971866438
H           -1.88251223237366        2.60944553077397        2.35515414943340
H           -0.75123174715152        3.96884830919499        2.40738038319630
H           -2.45173753626940        4.22229582185899        2.79576427161711
H           -1.23725157651890        2.29602949500463       -4.09838544530476
H           -1.20975313074134        4.07264141470790       -4.14317740067595
H            0.32345626763239        3.15331609138784       -4.29098712268256
