38
 energy: -60.295352228450 gnorm: 0.000738608411 xtb: 6.7.1 (edcfbbe)
C            2.20285157393245        0.14931113596097       -0.99145891619560
C            1.10405647732309        0.01873636326868       -1.70810361841683
C           -0.28124636415199        0.02954505357695       -1.11757782393068
N           -1.12790903526713        0.98488961447421       -1.79983587692520
C           -1.35912999709529        2.23497755143938       -1.42054804949824
N           -2.13394454463653        2.87166315126026       -2.29918792885980
C           -2.45445594590699        1.97680405557350       -3.30262085048223
C           -1.79349452171592        0.77332710635147       -2.98968416361818
C           -1.89052326510393       -0.33976635520079       -3.81616404331377
C           -2.66501740103873       -0.21135352943159       -4.95037794662457
C           -3.32393635700999        0.98170132809317       -5.25907164576380
C           -3.23196105296278        2.09402046441885       -4.44767261105672
C           -2.74489130015438        4.14270133739044       -2.04340439675507
C           -3.54494344297735        4.03600429212204       -0.71562500167641
O           -3.37680247772830        3.05755858848975       -0.02319658118839
C           -4.43711792153143        5.14086636911860       -0.38041957383358
C           -4.53816013949531        6.31555352818419       -1.13563572324532
C           -5.39581817995603        7.32133570706618       -0.74482246917253
C           -6.16698710104140        7.16699109635595        0.40348636104965
C           -6.07944075529825        6.00879145926597        1.16793058417446
C           -5.21871817019149        5.00829596881329        0.77653512449854
Br          -7.34312545466245        8.55243839491832        0.92804725958689
H            2.17758252520622        0.27698397789458        0.07791419394259
H            3.17757679417142        0.11360848964311       -1.44444100079491
H            1.14687223705607       -0.11732091045288       -2.77967523023661
H           -0.73916796667522       -0.95883069981040       -1.22211206118861
H           -0.24305775627140        0.28790682218768       -0.05790176448536
H           -0.95000588251783        2.67968652425353       -0.53368522523611
H           -1.38292404922418       -1.26225492395266       -3.58692886678804
H           -2.76615074574702       -1.05152693678391       -5.61846471625372
H           -3.91931875470167        1.03236352641894       -6.15655744507406
H           -3.74417211988460        3.00806693318844       -4.70037952639633
H           -1.98352505918602        4.91939382727119       -1.92292575782907
H           -3.40062399293858        4.40059714910919       -2.87382024139008
H           -3.94430661579869        6.46262964125526       -2.02382878217377
H           -5.47221847942470        8.22836133579533       -1.32372534265098
H           -6.68010580546086        5.90216560183095        2.05764108184963
H           -5.13280895192748        4.10126696064636        1.35550857595312
