44
 energy: -65.055109565059 gnorm: 0.000330313688 xtb: 6.7.1 (edcfbbe)
O            1.70804497021672       -1.93075562948208       -0.87548086752856
C            1.05833068813459       -1.00753761340446       -0.19426100328564
O            1.36682047649299       -0.65544171761857        0.91878801479184
C           -0.12989610994742       -0.45950191102310       -0.95554687680331
C           -1.44727807208417       -0.87741179045293       -0.28882722496612
C           -1.65594472658359       -0.25666734210131        1.09773965756314
N           -1.93679786670244        1.16001751967402        1.01728327169438
C           -1.13583437000122        2.18534068319119        1.33454841991933
C            0.22287857299321        2.10012084692982        1.89573625879192
N           -1.76465583234161        3.34445747962303        1.09689818288126
C           -3.03044563945616        3.07094049482754        0.61780778842136
C           -3.14017659506390        1.67142285660551        0.56573665054698
C           -4.31044100664499        1.05541291034853        0.14056741460054
C           -5.34998185073089        1.87927912959451       -0.24038106162506
C           -5.23651400991509        3.27054873128066       -0.19970560603626
C           -4.08231944812924        3.89173856281854        0.23165032455627
C           -1.24301434355937        4.66075309316573        1.40097954717451
C           -1.17903919764509        4.89095395387129        2.89428162767230
C            0.00480143128076        5.28635748009772        3.50062991255342
C            0.04776999816616        5.50476684260347        4.86724271589685
C           -1.08830267073603        5.31891103469723        5.63610972695446
C           -2.27094233075323        4.91893833074444        5.03580417165867
C           -2.31798520642638        4.70734914913456        3.66955269373384
H            2.46482983984927       -2.29067580955891       -0.38289353274796
H           -0.05388804478078        0.62913645101093       -0.98899931273343
H           -0.09536524637860       -0.84916722969088       -1.97164484050398
H           -2.27057363202988       -0.59366451617807       -0.94581761982820
H           -1.46414128861462       -1.96237305436998       -0.17982144684030
H           -2.50968217827821       -0.73559489943142        1.58404486408213
H           -0.77200670955441       -0.41473761832945        1.71548089153458
H            0.18550849713079        2.24350553578671        2.97706352765746
H            0.69292322044962        1.13994425930081        1.69058807994770
H            0.85107273179579        2.88923833993381        1.48799235525385
H           -4.41208496180144       -0.01685187719624        0.11384798171849
H           -6.27512373290498        1.43958627024448       -0.57671284593851
H           -6.07557552650409        3.87334531193045       -0.50776314187406
H           -4.01260970506526        4.96658260145963        0.27005746249317
H           -0.24979926638100        4.77053161673493        0.95715970819356
H           -1.90614190417019        5.39238411223437        0.93450680663953
H            0.89298146307403        5.43805249280718        2.90462165385621
H            0.97005684230644        5.82011791561362        5.32942762400076
H           -1.05437504696569        5.48937056538689        6.70060880307699
H           -3.16010190289039        4.77780008249494        5.63044244124583
H           -3.24572030884681        4.40442635465096        3.20397680160682
