24
 energy: -28.927739194033 gnorm: 0.000390148484 xtb: 6.7.1 (edcfbbe)
C            1.22207414657881       -0.37617886154504        0.45984389388814
C            0.56202879469848        0.53803615168631        1.48570546858164
C            0.90919717397618        2.01410959590074        1.29279843597246
C            0.31594618574065        2.63657467216030        0.01848010272681
N           -1.13057691419605        2.69928362364418        0.10768857425431
C           -1.87619828584805        1.70279966137139       -0.38136596727641
C           -3.24917471037985        1.69874531085433       -0.23558438077223
C           -3.86418169990333        2.74896959021581        0.43224244386418
C           -3.07208721026454        3.77592376060492        0.93168349822005
C           -1.70575076787236        3.71932664220882        0.75539778000494
H            0.87611251683579       -0.18304157849678       -0.55343945734461
H            1.00041514682441       -1.41364456905862        0.69298977393510
H            2.30134373285822       -0.25056680238002        0.47988105765903
H           -0.52297750850403        0.39652873012237        1.47342975467036
H            0.90765161289574        0.24617917760467        2.47819645634498
H            0.56781767109859        2.58547028365599        2.15854283082308
H            1.99264679489508        2.11884189508367        1.23126056585709
H            0.70653540489008        3.64785554068835       -0.10692553407389
H            0.59815220472599        2.04214667560504       -0.85061387362178
H           -1.36375301678646        0.90840183060874       -0.90337640300274
H           -3.82528856973219        0.88304249783238       -0.64203143187343
H           -4.93510526278998        2.76919667093613        0.55863396361969
H           -3.50861882713613        4.61278700664619        1.45274067366110
H           -1.05518861260545        4.49619249404960        1.12977177388235
