47
 energy: -61.447761945198 gnorm: 0.000258731182 xtb: 6.7.1 (edcfbbe)
C            1.69117040181442       -0.46953654166642       -0.16525830649385
C            1.03877023678278       -1.65788623988025        0.53010105707988
C            1.27548656756146       -1.67997902364884        2.04036013667660
C            0.55691950088446       -0.56824194421080        2.80371340831851
P           -1.27489570422037       -0.66750934841822        2.84153513398415
C           -1.81573448806777       -2.32104031595542        3.32869347455253
C           -2.43734056924098       -2.51998394017926        4.55893785989963
C           -2.83234123413956       -3.79321707551164        4.92997848749124
C           -2.61270721572749       -4.86638023376340        4.08147424141207
C           -2.00426467230737       -4.66789941995319        2.85128660769094
C           -1.60636051752785       -3.40016960894198        2.46873359730943
C           -1.82100849309752        0.53815140766811        4.07203921204244
C           -2.84755842883440        1.42982891720783        3.77287412125819
C           -3.26524902362316        2.34066531826397        4.72736830432933
C           -2.67037673590474        2.36091651860357        5.97852955033692
C           -1.65718323057019        1.46420881815231        6.28305086863034
C           -1.23050458025265        0.55222451314798        5.33586346235225
C           -1.98577155568384       -0.19687920195417        1.25006076275143
C           -1.55923455306497        0.99708594457228        0.66902913911559
C           -2.08851171029001        1.39626067127495       -0.54324308156906
C           -3.04667151327686        0.61495971424990       -1.17250796240090
C           -3.48775933581217       -0.55883864450862       -0.58283463207618
C           -2.96367332561343       -0.96903355765056        0.63105054821943
H            1.24906890577618        0.47300352118878        0.14774735703839
H            1.56302070819485       -0.55350920982401       -1.24094424804388
H            2.75677778459010       -0.44140146257181        0.04804689327236
H           -0.03550102367340       -1.65039849828825        0.32229772518872
H            1.45193109723416       -2.57628864310653        0.10928357019895
H            0.97371271856812       -2.64816858941568        2.44752619950668
H            2.34628723528199       -1.57128473360175        2.22712944991990
H            0.87668346406629       -0.58264160864791        3.85064745781845
H            0.81168098612393        0.41340501708439        2.39395883783875
H           -2.61686915110721       -1.68391070168080        5.21924864743124
H           -3.31392342037739       -3.94584352714241        5.88324334396617
H           -2.92042546249074       -5.85757761035133        4.37549569972983
H           -1.84073302038129       -5.50223807016971        2.18691954904263
H           -1.14603280741077       -3.24916025392683        1.50345730112160
H           -3.31490106123787        1.41180786281976        2.79867055292126
H           -4.05740201905177        3.03442566079959        4.49271619731181
H           -2.99790711502013        3.07317005572206        6.71944576867733
H           -1.19957771628689        1.47466117365537        7.26012205976039
H           -0.44891428712193       -0.15273034459577        5.58340263781254
H           -0.82801062595475        1.61422918067458        1.17316908631839
H           -1.75633124480423        2.31707003117741       -0.99693225988601
H           -3.45501612448289        0.92693963633033       -2.12088725800163
H           -4.24321308615887       -1.15753693970917       -1.06741439391647
H           -3.31148455406186       -1.88109867332078        1.09468383406147
