16
 energy: -20.760071694786 gnorm: 0.000312339453 xtb: 6.7.1 (edcfbbe)
C            2.44909078919845        0.55795938379240       -0.01239174398281
N            1.08666928867420        0.09446671963603       -0.01858577069794
C            0.68163200734278       -1.20333908385928       -0.01463888336953
C           -0.68195014164843       -1.20319176774494       -0.02011200341231
N           -1.08665333531944        0.09471310703031       -0.02697804855610
C            0.00010005007613        0.86371941828625       -0.02609802966620
C           -2.44897073903732        0.55836760528794       -0.03919549011502
H            2.64202614471627        1.18294315170127       -0.88471862018612
H            2.64763748285317        1.14367883189367        0.88583080095428
H            3.12279979908731       -0.29542239280833       -0.03304148715739
H            1.36793112018457       -2.02547785387415       -0.00804906398770
H           -1.36847427695270       -2.02516832307724       -0.01956847191785
H            0.00025099509687        1.93693579862093       -0.03054345246271
H           -2.63430220257341        1.21585918299503        0.81042652854939
H           -2.65500410364165        1.10993274985456       -0.95729051397037
H           -3.12271287805680       -0.29327652773443        0.01884424997836
