42
 energy: -61.232439595201 gnorm: 0.000181839278 xtb: 6.7.1 (edcfbbe)
O            2.23352496887244       -1.29467517518193       -1.49673574057526
C            3.28694192899117       -1.01944374453319       -0.95019841091959
C            4.40587315321724       -0.40016507960769       -1.64946300397878
C            5.40886439856760        0.32316482555392       -0.99502069808966
C            6.41871286720772        0.91594860941696       -1.72621069487660
C            6.45471107779028        0.78525876500544       -3.10761053179889
C            5.46200646945169        0.07493420648772       -3.76664874883362
C            4.43851569329735       -0.50524658073949       -3.04634817623011
C            3.42062176282523       -1.33116609938548        0.55559557147847
N            2.80311408766172       -0.29439366859743        1.35470995075531
C            3.42794255019164        0.48072427300951        2.32327195492231
C            4.73196219696826        0.50588567606057        2.78811537615358
C            5.02976986465892        1.41437878831361        3.78798882037835
C            4.05904129896467        2.26425287965942        4.30853518258273
C            2.75130869880747        2.23308185803077        3.85801630128109
C            2.44412681391901        1.32659718745111        2.85695412032754
N            1.25078392863367        1.03322464114351        2.20223006573218
C            1.49704329987826        0.05236528604290        1.31377108935022
N            0.60607650669684       -0.55879754413598        0.53906512093869
C           -0.02028282035862        1.70942816203190        2.45818208023594
C           -0.53021202547324        2.42866077580096        1.21049009092864
C           -1.04563686421664        0.75132597399732        3.05920716103840
H            5.38204803699889        0.46362900870301        0.07443653733988
H            7.18345162893792        1.48389052434750       -1.21907457641073
H            7.25413540770352        1.24325388936964       -3.66917917129016
H            5.48636826838622       -0.02104595197750       -4.84074895251772
H            3.65598652789589       -1.06092668121347       -3.54027609640285
H            2.90921711785535       -2.28386612732075        0.73947719645337
H            4.46207223128726       -1.42877929201815        0.85429149803691
H            5.49125180039351       -0.15901088686467        2.40866144350596
H            6.03493239612526        1.46071850797117        4.17473108458107
H            4.32986087132440        2.95898395046513        5.08696372990614
H            2.01197141504775        2.89171301246869        4.28286447978543
H            0.94225201849737       -1.11119028499497       -0.25369291711207
H           -0.33722323098248       -0.21396324588602        0.49857993702657
H            0.21374886465324        2.46877449549387        3.20872455563990
H            0.26374801914108        3.02108409942489        0.76130175186767
H           -0.92113261128138        1.74667657879553        0.45990152036060
H           -1.33469038876472        3.10136432582879        1.49378672109078
H           -1.92220684559600        1.31477746533682        3.36583505498301
H           -1.36554042270462       -0.01129307022376        2.35439564132346
H           -0.63414096143720        0.25844566645282        3.93677368104381
