54
 energy: -67.692168139809 gnorm: 0.000606013694 xtb: 6.7.1 (edcfbbe)
C            0.44589746892295        0.40690205120796       -0.25163011139934
C            1.32708350821013        1.49956093832152       -0.85863560660190
C            1.67493547969757        1.14858085151197       -2.28629366753571
O            1.19837229821892        1.67547970590933       -3.25994315728014
O            2.57299347998566        0.16455264301667       -2.32773708831315
C            2.97718358486471       -0.33327307555942       -3.60176371114558
C            2.37150292532758       -1.70927363783073       -3.87685022766411
C            0.84427635150587       -1.71284421241338       -3.97401899466043
C            0.25785352814737       -0.82764978530112       -5.07606471214389
C            0.74654635354396       -1.14096112925623       -6.49061232805267
C            0.41157281264031       -2.54831925582953       -6.99027752904394
C           -1.08289105053974       -2.87410860602758       -7.03743440930091
C           -1.92744274964845       -1.91237570173667       -7.87784309424053
C           -1.47844726849083       -1.76670739165369       -9.33415031974433
C           -1.50442033944164       -3.06057294236002      -10.14641829689041
C           -2.91525767962969       -3.62299584569711      -10.38033956178247
N           -3.67647029730294       -2.73763700709493      -11.24077967296358
C           -3.53759014421776       -2.83203272835930      -12.56941180419276
C           -4.17799400113013       -1.95681667761696      -13.41978140618206
C           -4.97660078786564       -0.95200294516551      -12.88570940019553
C           -5.10575311002175       -0.86811124282174      -11.50573302745268
C           -4.44101462360253       -1.77731127360861      -10.70799708358254
H           -0.47954361482199        0.30717932792758       -0.81601760263675
H            0.19687582366617        0.66018288070933        0.77550270350361
H            0.96860500352195       -0.54689127962831       -0.25756996757292
H            0.80235032708909        2.45477123806288       -0.85704135564519
H            2.25024472165595        1.58690711684418       -0.28544283222557
H            2.69058190790500        0.38850574928585       -4.37178036055773
H            4.06725435522697       -0.40987937373546       -3.56298207236589
H            2.81250559231420       -2.08929804787068       -4.79916075394115
H            2.66654271686768       -2.37877490655742       -3.06616175502100
H            0.51745002902503       -2.74547641219516       -4.11576702101490
H            0.43327497827817       -1.37516242184816       -3.01976176309102
H           -0.82983890000356       -0.91906435916584       -5.03667245112614
H            0.49011939410284        0.21517294326414       -4.85620826724699
H            0.31924340310781       -0.40025424421669       -7.17010941123121
H            1.82973758071194       -1.01623942919314       -6.53318069879926
H            0.84649183868182       -2.67507403148249       -7.98483851422769
H            0.89224153894929       -3.28132078471959       -6.34084236308752
H           -1.20387612666824       -3.89504262931662       -7.40890193844947
H           -1.48001428987077       -2.86160338622902       -6.02173033988876
H           -2.96811189504893       -2.24613409083023       -7.82966724441629
H           -1.89397457464687       -0.92351088451674       -7.42001678233828
H           -2.09475157301972       -1.00616303728375       -9.82502214240903
H           -0.45546821383083       -1.39133826571624       -9.34406198499341
H           -1.02727867366942       -2.88874820931162      -11.11392517876769
H           -0.92908232529311       -3.82505878270616       -9.62625262852154
H           -2.84406765739228       -4.60245114247312      -10.85663934857838
H           -3.43355643603901       -3.73320133896816       -9.42757202139492
H           -2.90632072969630       -3.62443075885196      -12.94398253227461
H           -4.05265778092363       -2.06075367902134      -14.48549413269489
H           -5.48715732093511       -0.25431632511582      -13.53025489650463
H           -5.71635322071983       -0.10594628856079      -11.04885426148794
H           -4.52529161768078       -1.74996787821891       -9.63183487062278
