27
 energy: -33.190933890591 gnorm: 0.000248409603 xtb: 6.7.1 (edcfbbe)
C            0.73869823244315        0.73906120382375        0.07031788397841
C            0.45571793562310       -0.21105395232780        1.22128996027438
O            1.14343665977580        0.16820061090808        2.43359996781797
C            2.43563974202485        0.43810253226878        2.48080005070963
N            3.34697579387929       -0.27649838405956        1.81706919109208
C            4.59133632385958        0.27360980642353        1.31275215054836
C            3.13732191746670       -1.67429716874162        1.48891273384184
N            2.75790737375857        1.45805013783478        3.26819120312185
C            1.74056828691165        2.37828508270894        3.74071151984013
C            4.04089758383662        1.60214912291850        3.92699725756466
H            0.49986571298884        1.76339645269742        0.34676837688931
H            0.11410267181640        0.46098501725115       -0.77338182577358
H            1.77877597970425        0.69331312376831       -0.24519837701803
H           -0.59411042453251       -0.15661338783938        1.51579019039228
H            0.68530526970737       -1.24167492550933        0.94481593436494
H            5.45536113297910       -0.11778119233065        1.85133896353281
H            4.68968324256962       -0.01847566001628        0.26540856663228
H            4.58468666524287        1.35772347957335        1.36501245885558
H            2.36925428531296       -2.10404433162876        2.12755449560858
H            2.87304382754809       -1.80939856849280        0.43762137401545
H            4.06992743205055       -2.20787365887914        1.67538215510087
H            1.37416284211797        2.07998287360214        4.72415408313409
H            2.17916987138309        3.37240243671775        3.81162091560459
H            0.89966069822395        2.40238202957246        3.05304624785389
H            4.61862540141767        0.68562269539586        3.86415773305552
H            4.61288343748015        2.42982944192817        3.50514535333539
H            3.86099210441118        1.81845518243133        4.98050143562737
