17
 energy: -16.802282290886 gnorm: 0.000109838427 xtb: 6.7.1 (edcfbbe)
C            0.92340767686482       -0.02051702000141       -0.04962715458950
P            0.32081739277641       -0.31828915591354        1.62857384539477
C            0.92335588051897        0.98623065488973        2.72553985836852
C           -1.48698143824125       -0.31803848572453        1.62856977842060
C            0.92348824759356       -1.92049341128145        2.20981385754121
H            0.56304111605635        0.94393555705349       -0.40543465167716
H            0.56352405497058       -0.80394887338336       -0.71547728603778
H            2.01271582417514       -0.01912476281578       -0.05585992985048
H            0.56301567526112        1.95447545324057        2.38015270972907
H            0.56332935928849        0.81193753635184        3.73877350034589
H            2.01266163500679        0.99132103984702        2.72958098234648
H           -1.85631101873532       -1.10234622961004        0.96895104338577
H           -1.85612821468104       -0.49697822934838        2.63770145281083
H           -1.85577285918711        0.64552710519990        1.27905433767867
H            0.56355456593209       -2.71093981162002        1.55233880184010
H            2.01280079164624       -1.92625938850330        2.21201331295030
H            0.56338131075414       -2.10559197838074        3.22109554134270
