25
 energy: -30.271626774533 gnorm: 0.000193602611 xtb: 6.7.1 (edcfbbe)
C            1.40565529050720        0.10207302904107       -0.08907136358845
C            0.66636919180755       -1.18414979157388       -0.41849445394174
N            0.96597114839680       -2.26268873088539        0.50839753828997
C            1.52087382335177       -2.12956710398568        1.74814828356006
C            1.61245398230158       -3.37279896398026        2.28696717454513
N            1.11068462794380       -4.25047021252901        1.37250273274179
C            0.72346773893710       -3.56269487915572        0.29042349762037
C            0.08749041469241       -4.14996936436171       -0.91384245689555
C           -1.44365530347666       -4.07826776995681       -0.83014635660684
C            1.02963990228000       -5.67719958823795        1.55126918409070
H            1.05516883082933        0.53912398017694        0.84176013792468
H            1.22008406831492        0.82129169369617       -0.88176475739440
H            2.47801432886205       -0.06605140032537       -0.02999570140166
H           -0.41300474006186       -1.00298909589242       -0.40335833943358
H            0.94052535383537       -1.51767424299411       -1.42284017125604
H            1.80873994909727       -1.18639973400632        2.16056163883925
H            1.99181248856945       -3.68533111632639        3.23778411961703
H            0.42241495819140       -3.61638459175657       -1.80496018422239
H            0.39508173552517       -5.19133204262501       -1.01209072381484
H           -1.78744248907127       -3.04892610589325       -0.78644113118631
H           -1.87415188817836       -4.54281136049968       -1.71157442736518
H           -1.81249572163376       -4.60257408411756        0.04727995029948
H            0.00843062088363       -6.02632106733321        1.40076573974305
H            1.68674321503399       -6.19067881062306        0.84777247542066
H            1.34058847306124       -5.92600864585487        2.56314759441479
