40
 energy: -50.134499676062 gnorm: 0.000393763810 xtb: 6.7.1 (edcfbbe)
C            0.94791309463002        0.01804589442794       -0.21639644155882
C            0.30591719539493        0.47509425871292       -1.52992619607024
C            0.76266946473127       -0.40001427131115       -2.65334380966548
C            0.05077793608614       -1.53867766267675       -3.01345348707289
C            0.49889565642904       -2.37413925797793       -4.01805733991831
C            1.68435807243782       -2.09563376925573       -4.69039220178016
C            2.40288215959758       -0.96146981547179       -4.34282870407981
C            1.94144270993417       -0.13052537394591       -3.33573849354706
N            2.13174300885834       -3.01639485033535       -5.76744678756227
C            1.10857836008143       -2.96005388691106       -6.87377835445280
C            1.42490061920098       -3.84420362432400       -8.05032435970924
C            0.98853579522558       -5.16541682027351       -8.07616711660904
C            1.27371385871508       -5.97624133156073       -9.16073880302076
C            1.99142245123814       -5.47459584973707      -10.23365394663201
C            2.41123827415100       -4.15486097155192      -10.22593118639532
C            2.12842874042551       -3.34311568562405       -9.14161364696151
C            2.24800799330978       -4.38279874998397       -5.21846103556377
C            3.44909276671769       -2.64958369767775       -6.31681264879421
H            0.66509015339899       -1.00679202055691        0.01101087660223
H            0.62022421414309        0.65596135162682        0.59899456835027
H            2.03183269372452        0.07049907083723       -0.28283202583457
H           -0.77930223995818        0.42531229289163       -1.43574351118628
H            0.58948063394972        1.50969747245423       -1.72623007919496
H           -0.87070694712787       -1.77652242351533       -2.50482990308866
H           -0.09788178807994       -3.23952312972225       -4.26056770355817
H            3.32399408657323       -0.69189281470717       -4.82966206933818
H            2.51589595307958        0.74687757118695       -3.08179532773151
H            0.14471366962061       -3.24458482070188       -6.45043429433918
H            1.04802893587129       -1.91609125203344       -7.19078825873325
H            0.40627936293834       -5.56089361334400       -7.25654860037000
H            0.92777600433531       -6.99780554397503       -9.16988643613330
H            2.21102711603025       -6.10640107758386      -11.07948866681243
H            2.95413949981007       -3.75330337284749      -11.06696200460152
H            2.44153032433281       -2.30921964056112       -9.15498855705638
H            1.28614516839764       -4.74388642394923       -4.86554478307391
H            2.61523091431922       -5.05969571644621       -5.98787546636595
H            2.94422869597544       -4.37599003660207       -4.38124440414376
H            3.41163987390086       -1.66184870024903       -6.77085453394377
H            4.20058174163020       -2.66528877242270       -5.52988620433229
H            3.72778377596974       -3.37060293430418       -7.08375805571780
