59
 energy: -87.359627451074 gnorm: 0.000227775237 xtb: 6.7.1 (edcfbbe)
C            0.02976455083037       -0.29351256988265       -0.93154154099063
C            0.42131423795423        0.54856450038674        0.21553528169757
N            0.95637524908436        1.77802882698872        0.19783542481726
C            1.13818238240142        2.19013450797720        1.49139037207040
C            0.70756093204932        1.18828981944102        2.29707195349263
N            0.26356550864190        0.18149444531467        1.49146162285040
C           -0.35404841857065       -1.04706530427600        1.94008926088778
C           -1.83077271746143       -1.07836871506195        1.61103371123461
C           -2.64013636116063        0.00812706509030        1.92105303734962
C           -3.99270446161323       -0.02707602198548        1.63151818906576
C           -4.54707022223472       -1.14876614807294        1.03716120036589
C           -3.74548939321444       -2.23537412781634        0.73092282154211
C           -2.39008029992972       -2.19883902788152        1.01105802796471
C            1.32162283852279        2.58847126622573       -0.93829881452491
C            2.85519425672074        2.63464703394195       -1.14848304935312
O            3.45760827808744        3.04870227725212        0.05657475318749
C            4.10968472564839        2.04124884297064        0.67596904490788
O            4.50135893539948        2.17612482208085        1.79623031328636
C            4.20538161495785        0.81383779886458       -0.22570451495015
C            3.49565757167544        1.28712891255051       -1.50909960290201
C            5.67102494943811        0.41623372510375       -0.45051702717092
C            6.05377770991259       -0.18821107413287       -1.64243730994913
C            7.36249632854707       -0.59387603474778       -1.83569750011340
C            8.30467954693590       -0.41209445169567       -0.83924082244373
C            7.92370083058022        0.16608017624801        0.35825543939444
C            6.61453571529143        0.56947781955811        0.55645989025164
C            3.58055251701978       -0.42484394374225        0.41035556505015
C            3.22794142515970       -1.50040367929076       -0.40058918218176
C            2.74009015590379       -2.67333224784487        0.14886004716017
C            2.60487875750362       -2.79687441964921        1.52158911399153
C            2.96875720996383       -1.73845414014620        2.33602833312108
C            3.45547466299935       -0.56350335675254        1.78749368343604
H           -1.00152289171450       -0.62609496926056       -0.80976401888332
H            0.66221915882591       -1.18233576525718       -0.97158470252841
H            0.11510875030476        0.23871086293308       -1.87349647577687
H            1.55905838757569        3.14436447785642        1.73412027475715
H            0.68765654186139        1.12307524268440        3.36514989074999
H            0.15661732585061       -1.89399621001970        1.47443333424989
H           -0.20855561089288       -1.11129656504205        3.02129743626411
H           -2.21578085455291        0.88133702196220        2.39660562224164
H           -4.61479366796153        0.81921285651307        1.87762909626021
H           -5.60253546643900       -1.17703122628309        0.81752958599885
H           -4.17335162718494       -3.11320285106368        0.27285027506886
H           -1.76699531120783       -3.04917488298673        0.77508544935050
H            0.83975467619142        2.21736888166491       -1.84236852852644
H            0.97644409707651        3.60774943881024       -0.74664040413455
H            3.05416812274018        3.40042689912022       -1.90515928056469
H            4.22303476929676        1.44480315248053       -2.30394806039729
H            2.74789936407728        0.58015163739489       -1.86120664717724
H            5.34079141739773       -0.36125626823698       -2.43478729557817
H            7.64135518378278       -1.05690312926928       -2.76993382713699
H            9.32512570099048       -0.72622150362029       -0.99304015319437
H            8.64514873010440        0.30362521422981        1.14860629219661
H            6.33852348047722        1.01137857974740        1.49981443334066
H            3.36844032960003       -1.44809801065747       -1.46961742938016
H            2.48811270715895       -3.50058181853066       -0.49801661197712
H            2.24461934373643       -3.71867767977208        1.95215031681461
H            2.89498264881260       -1.83198790966550        3.40874577450270
H            3.76307567706175        0.23424794728036        2.44372793101329
