45
 energy: -63.672073667904 gnorm: 0.000781167705 xtb: 6.7.1 (edcfbbe)
C            1.41633112204079       -0.26005062018338        0.23300850995396
C            0.96722286413731        1.00881724310557        0.59869455213686
C           -0.38487915966573        1.29220488646618        0.55287129920001
C           -1.28482262455259        0.31805870271657        0.14656836643883
C           -0.83663494124605       -0.94295789517094       -0.21261648549493
C            0.51478844589760       -1.23879985816221       -0.17217726842981
P            3.19013756598938       -0.58572706334130        0.26660262312762
C            3.97816571463725        0.12341455922213       -1.19291423406808
C            5.25099714974125       -0.32598537784393       -1.54500077344429
C            5.88486861889994        0.21760356309794       -2.64647166923534
C            5.25470126415961        1.20104763698476       -3.39461047036505
C            3.98876782251261        1.64359844720770       -3.04481752321240
C            3.34412775428901        1.10847247445189       -1.94319592814048
C            3.86891421409522        0.15233005908001        1.76593302966731
C            5.09371456387822        0.81187322597711        1.75008469699780
C            5.59640703839228        1.33907392296788        2.92694661474469
C            4.88444922067646        1.20879565866602        4.10888088286412
C            3.66219191355820        0.55287101163923        4.12239887204735
C            3.14897709645548        0.02265949902261        2.95368853675424
C            3.49219100649248       -2.36380600573006        0.25875599232271
C            3.81212161085907       -3.04278488665278        1.43012176857354
C            4.00409686640233       -4.41292123810354        1.39006338530240
C            3.87598193663721       -5.09962015312971        0.19310613767635
C            3.56048630193613       -4.42044546372208       -0.97473569228161
C            3.36859780956165       -3.05190064612362       -0.94840033612563
H            1.67631620406687        1.75920893565056        0.92285321139320
H           -0.73767818704645        2.27184069478505        0.83577517661031
H           -2.33955606030329        0.54269076429407        0.11369508379858
H           -1.54029140679397       -1.69930980711548       -0.52354676956385
H            0.86743416617719       -2.22310178742987       -0.44518407440836
H            5.73005528341284       -1.10056126820236       -0.96111510100688
H            6.86884846911312       -0.12729815679560       -2.92387575430649
H            5.75160661253524        1.62063710012105       -4.25537643018622
H            3.50017320128230        2.40487838099488       -3.63207870970526
H            2.35421804703154        1.44602825241341       -1.67124874988438
H            5.64247211719155        0.91699145442586        0.82488287738225
H            6.54459277777207        1.85363196601197        2.92019373897440
H            5.28080789152443        1.62255971041180        5.02299867221248
H            3.10879473993316        0.45650604241302        5.04362760856596
H            2.19250786127646       -0.48341979336763        2.95223422562155
H            3.91625423477908       -2.50247741500640        2.36041170695336
H            4.25512621352843       -4.94430395915168        2.29491359735514
H            4.02582385684557       -6.16775292206243        0.16816258089655
H            3.46583202157031       -4.95766937084943       -1.90571620101423
H            3.13154078031504       -2.51142050398513       -1.85555157670010
