161
 energy: -205.070407701981 gnorm: 0.000739631328 xtb: 6.7.1 (edcfbbe)
C           -5.59498152357022        0.99821588010987       -2.17099772940884
C           -5.76668419787435       -0.50708149164273       -1.99275908578927
C           -5.16189135936090       -1.32933445757936       -3.13245456289966
C           -3.63487461523145       -1.35747143974385       -3.11080206801373
C           -3.06020357376547       -2.26125344035801       -4.19947328014345
C           -1.54218904158554       -2.38704145205007       -4.11772567393722
O           -0.95012440616394       -1.11814667453837       -4.39771447129552
C            0.39174230683219       -1.16014692210131       -4.74645279949279
C            0.76130418120521       -0.64592513412942       -5.97010120017296
C            2.09127852441816       -0.60601296126398       -6.40237197142703
C            3.08270310048909       -1.17217322739926       -5.57126348600293
C            2.69158699807444       -1.67401828984713       -4.32479774301854
C            1.38372631873621       -1.66304641443534       -3.88724904954191
O            1.00051708309709       -2.15841113424205       -2.65802129655233
C            1.74643022686831       -1.73568644694323       -1.53207178420709
C            1.65460554466671       -0.21673841742213       -1.34568670862042
C            0.18696495051523        0.19923612231559       -1.25371190419404
C           -0.07084704816158        1.65793609104347       -1.62884969280184
C           -1.57382370633772        1.84608006795400       -1.81765145032215
N           -1.96046976178144        3.15721979421711       -2.31991100329304
C           -2.80114082869673        3.37601707895488       -3.34747398369605
N           -3.68445532283603        4.38381700645584       -3.25620372964755
C           -4.12325171457558        5.16111993133126       -4.39827940302412
C           -4.08381128873534        4.92613852213001       -1.97339588839737
N           -2.74207082727469        2.61485806272001       -4.44233186330799
C           -1.51651838539405        1.98404779718969       -4.89256234924050
C           -3.90006186282349        2.29802988239043       -5.25163474410412
C            4.45522049506779       -1.23740607835225       -6.03153585813392
C            5.47753196101677       -1.76354902615189       -5.23155608148308
C            6.79270390576221       -1.86236143024559       -5.63622575748800
O            7.81055750785669       -2.33066396319317       -4.85660365563612
C            7.60894237124830       -2.88040852558453       -3.56573162327776
C            7.94435448791717       -1.88522342006660       -2.45009207229829
C            6.94814376481347       -0.73287399670786       -2.30612541466319
C            5.65575958744180       -1.13647452303686       -1.58985555768021
C            5.77886510849430       -1.16078657792187       -0.06449832729234
C            5.80811060745460        0.23323430176345        0.55040854559518
C            7.12241376509790       -1.43011402052357       -6.94681802264002
C            6.11709205990857       -0.89554996973603       -7.73156773099779
C            4.78948418851989       -0.77310724725863       -7.31843970199030
C            3.77733783315603       -0.17320656679059       -8.16354062791995
C            2.45613652911364       -0.04348792463080       -7.68411329174840
C            1.54098218910692        0.64609730004313       -8.48234211554336
C            1.85014426824668        1.14862108960651       -9.72949852285677
O            0.86101453339383        1.84473703818015      -10.41007466220102
C            0.78143851719589        3.21444292752064      -10.05839656440474
C           -0.47968342034534        3.80684235805275      -10.68010006132046
C           -1.75954925211304        3.09724002977448      -10.23487134533457
C           -2.01166082851011        3.10900196316040       -8.72594093285167
C           -2.16077534076140        4.50155468898381       -8.10902136530995
C           -3.45580202274805        5.19533968140141       -8.51512230674417
C            3.13552793634817        0.92485377258170      -10.25954450409951
C            4.06402516029237        0.28924080486821       -9.44655942251978
O            3.60602517962733        1.29683467942678      -11.47453475187400
C            2.72378295638105        1.60898903514349      -12.54098461633030
C            1.86388430448578        0.41717253997911      -12.96938947695330
C            0.60876771659266        0.85347378653683      -13.72114429050725
C            0.91367726051209        1.59905447311515      -15.01859672023419
C           -0.34502636284528        1.94018929013380      -15.81778916299354
C           -1.22814149226117        2.97499926222077      -15.12920860053824
O            8.35713942173031       -1.39101519731066       -7.50512084227230
C            9.31844009591458       -2.41728633660031       -7.29078870264854
C           10.70505172237544       -1.82510133204348       -7.53210557796591
C           11.02516301112700       -0.67232215940490       -6.57948024978561
C           11.13711028626483       -1.11311896046707       -5.12165763263137
C           11.57808189949570        0.01539312184123       -4.18872781156250
C           10.54320088105383        1.12921894088532       -4.07088541582784
H           -4.54280036354472        1.26944586082002       -2.21966403197536
H           -6.04625471774330        1.52824716191646       -1.33533469371108
H           -6.08594794953113        1.32478823632913       -3.08560200140260
H           -5.31360514616493       -0.81593301774428       -1.04885162551677
H           -6.83406465127750       -0.72578436187122       -1.93185480915097
H           -5.52566898976021       -2.35492443554428       -3.04933060541360
H           -5.51160565188159       -0.93601450109924       -4.09017562053634
H           -3.24270786199230       -0.34908240061119       -3.25035150758177
H           -3.29738835758827       -1.71604481844943       -2.13586992095342
H           -3.48190630209027       -3.26239396823401       -4.10185794980340
H           -3.33284168606420       -1.87534356644525       -5.18418427315431
H           -1.23718804068041       -2.72932212856512       -3.12257125024325
H           -1.19110180912723       -3.11673799274293       -4.85663028926402
H           -0.03121275533864       -0.28481588006836       -6.60458943404269
H            3.42537482154138       -2.10187974966619       -3.66408194407784
H            1.28281968926356       -2.25386334153227       -0.68917242904099
H            2.79349521157553       -2.04791576848400       -1.59852104682973
H            2.20996136060810        0.07225207523347       -0.45384222644557
H            2.11889895816957        0.26312696529362       -2.21124966205562
H           -0.37338019571149       -0.42910198085788       -1.94862231743662
H           -0.18998284102775        0.00084436922012       -0.24913702915377
H            0.30723441598210        2.32924767439388       -0.85626360742587
H            0.45192266698177        1.88530066912059       -2.55917420951667
H           -1.93719329027220        1.09111295308934       -2.51274284839495
H           -2.07527655596952        1.68664202038497       -0.85585894635303
H           -1.84403323910424        3.91074353584375       -1.65806217426093
H           -5.18821178188029        5.02077232153950       -4.58962170876945
H           -3.95100502664935        6.21813491054463       -4.18787144588235
H           -3.55750627218429        4.89575977379449       -5.28563606711521
H           -4.04607286544613        4.15706984983187       -1.20440612889408
H           -3.46205451275095        5.77522449567519       -1.67624324922148
H           -5.11345611997204        5.27263347304230       -2.05504589060918
H           -1.51821406858074        0.90384573204864       -4.73254331590974
H           -1.41987363970306        2.16886048625148       -5.96329849056765
H           -0.66129968533025        2.42344845987918       -4.38811876433468
H           -4.81170904677257        2.63059880744411       -4.76569027465475
H           -3.82881859914786        2.74102778163607       -6.24585248448772
H           -3.94413967181113        1.21307880135586       -5.36602868135213
H            5.23228512812042       -2.08680938052379       -4.23700102587729
H            6.60273957842260       -3.29212618764054       -3.45713905793067
H            8.31686908657758       -3.71554966916246       -3.50873110214021
H            8.00884673507479       -2.44110649924083       -1.51326600380924
H            8.93409980587943       -1.47757602356233       -2.66310826739247
H            7.42532049779663        0.07323980270221       -1.74758505722615
H            6.71370170432380       -0.33996737427030       -3.29753230086554
H            4.86046644462504       -0.43887940314459       -1.86533667695541
H            5.35737483020747       -2.13393754516652       -1.92265596469296
H            4.92656692810604       -1.70733643085924        0.34810829830542
H            6.68268642281509       -1.70125080496983        0.22118583035696
H            4.91070390724817        0.78798041825581        0.28194209858490
H            5.85925512583603        0.16587519509244        1.63434292781574
H            6.67178165687125        0.79631122165806        0.20700126535880
H            6.42533226517809       -0.56011061966153       -8.70687788098714
H            0.53443015707183        0.82171454472098       -8.13564306550389
H            0.77044470316829        3.32258929597500       -8.96450122405949
H            1.66686110293599        3.75577642244614      -10.42895747141513
H           -0.51670653079027        4.86963255673965      -10.43777878238888
H           -0.40315551756881        3.71655417882843      -11.76498476477543
H           -2.60662961718035        3.55083522184028      -10.75139197440432
H           -1.69413022501787        2.05583603134300      -10.55493249982796
H           -2.92230155989724        2.53323970759315       -8.53390137088405
H           -1.18661619698569        2.58976432069729       -8.23341136132789
H           -2.12744228099639        4.40967594470361       -7.01704238432957
H           -1.31207357812864        5.12285775889092       -8.39527838497068
H           -4.32101682457918        4.58301659564554       -8.26448491403959
H           -3.55263288523351        6.15335888118687       -8.00865235298662
H           -3.47129633435890        5.37909607778994       -9.58495367620461
H            5.04528948086851        0.17024773362963       -9.87257477281455
H            2.08392887960071        2.45715281591614      -12.28410743886491
H            3.39584104982198        1.91401668955704      -13.34666324108225
H            2.45977846189601       -0.26098358678450      -13.58263051034687
H            1.55795055125183       -0.12532971106000      -12.07185445259921
H            0.01642584502589       -0.03432188769985      -13.95432872070372
H            0.01625361268360        1.48371943926253      -13.05642481667802
H            1.45281404432309        2.52223436263161      -14.79720759289062
H            1.56407598807302        0.97566271492976      -15.63640681854842
H           -0.04355773348856        2.32971190019987      -16.79253400193154
H           -0.92173190714465        1.02900975043903      -15.99067421881002
H           -0.65959708979412        3.87841823617565      -14.91686160957390
H           -2.06502196509292        3.24193480082416      -15.77026018925771
H           -1.62857980326214        2.58878151520604      -14.19511160015785
H            9.24800037336037       -2.82858983272647       -6.28538816985842
H            9.12633844938889       -3.22518743732097       -8.01212414983935
H           11.44198493578895       -2.62284667147906       -7.42305598936447
H           10.74774675533446       -1.45609197594246       -8.55829697854290
H           11.96892579807404       -0.21695769253284       -6.88809171681340
H           10.23968135194394        0.07688176252743       -6.67997325690232
H           10.17246423066365       -1.49093816752177       -4.78190746586789
H           11.86130610492468       -1.92940465141323       -5.05330000349771
H           11.76103325570207       -0.40471090110891       -3.19595577762688
H           12.52148187623053        0.43464309982903       -4.54533938427966
H            9.57222288903287        0.72161383766349       -3.79595725591811
H           10.84364250942347        1.84618892327821       -3.30971584900863
H           10.43540953016081        1.66123003175092       -5.01214415994485
