41
 energy: -91.021181441707 gnorm: 0.000713679724 xtb: 6.7.1 (edcfbbe)
C           -0.03159787800853       -0.21384561844643        1.17393039626863
C            0.24764318269415        1.02239147734369        0.43093048181109
N           -0.24564304753017        1.41749286605865       -0.75107301315124
C           -1.08862752308402        0.67803775995763       -1.66342363348909
C           -0.32945603215886        0.14476686638796       -2.88750616180405
C            0.63479672013042       -1.01287902075756       -2.58381150154801
F            0.28644263356906       -1.64959383403663       -1.43858210320261
F            0.57917959577292       -1.93372719538407       -3.56039052471637
C            2.12670222336973       -0.56188963276228       -2.45755282311720
F            2.57962329945479       -0.21596631835659       -3.66709230156059
F            2.18786575741131        0.56192796073539       -1.69405511495732
C            3.05111692367066       -1.61587382811199       -1.77766231224163
F            2.82273561153776       -1.53334203202642       -0.44498066750775
F            2.75015403059517       -2.85623457412810       -2.16153186667629
C            4.56677730590859       -1.33607377375472       -2.03232251791356
F            4.88900225712545       -1.57835414516412       -3.29012631861582
F            4.83802984297389       -0.05782190896242       -1.76156398705364
F            5.30824381425770       -2.09062960483507       -1.24076033970525
C            0.24052470632028        2.66955416362244       -1.03467806169433
C            1.04461937276728        3.03309195635156       -0.00954490616006
N            1.04598593281470        1.99963687040566        0.88610222918526
C            1.74796042879950        1.98784120947159        2.16303445612091
N            0.87706734636326        2.37632938558087        3.22588370766872
C            0.85602093996622        3.53545137540791        3.93136574687162
C           -0.17961026581961        3.43863878119926        4.82208966887503
C           -0.74647098296513        2.17607190287658        4.57809075015358
N           -0.10554147386715        1.55009129281387        3.61679818565167
H           -0.86734019581237       -0.76381493091822        0.75615462489499
H           -0.25097475674962        0.04809321517192        2.21643645547883
H            0.83732208134712       -0.87277709775387        1.16684123743933
H           -1.56427380932642       -0.14687644877798       -1.13074873874873
H           -1.86928769149814        1.35226826169086       -2.02520574742775
H           -1.06558804870433       -0.24949959589178       -3.59224177789559
H            0.22102281854790        0.94371325478884       -3.38749030762565
H           -0.02484115382460        3.19837960035594       -1.92651446570023
H            1.60850998298144        3.92987459583005        0.14286115158619
H            2.11915557421097        0.97182415844600        2.34058343434654
H            2.58758839635681        2.68486152872305        2.10281621942371
H            1.57160238163692        4.31277439974073        3.76118717846015
H           -0.48911537461180        4.15946854606900        5.54835771094090
H           -1.58165492663816        1.71352813108371        5.06256555731611
