23
 energy: -36.237986556424 gnorm: 0.000756624511 xtb: 6.7.1 (edcfbbe)
O           -0.00451288748103       -1.04323531233989       -1.26150318032188
N           -0.20222171916358        0.31062773091783       -1.34006135599834
C           -1.07678095168193        0.82666083417386       -0.59368926969469
C           -1.88111125397496        0.13548434334016        0.44684266364062
C           -1.52479884771061        0.29958778475747        1.78025877025193
C           -2.21479517068625       -0.37880350003304        2.77026781547777
C           -3.26891286339090       -1.20722202043204        2.40176025167051
C           -3.59968125466404       -1.31669424448666        1.07006602582449
N           -2.91276450440396       -0.66265979757028        0.12237631165669
C           -3.31279124982715       -0.85635915627743       -1.26319948792953
C           -2.95390992499518       -2.26711065134220       -1.74881508318334
O           -3.77677327611990       -3.18155547895956       -1.06521666926005
H            0.74772934582667       -1.22459501380349       -1.84843083164348
H           -1.17408757793915        1.90068363434477       -0.67296049712904
H           -0.69927819240629        0.95051593714630        2.02289379215144
H           -1.93862334646124       -0.26266535894560        3.80635044013983
H           -3.83343847142591       -1.75427884009078        3.13881013563071
H           -4.40583956078691       -1.94902317713153        0.72788032820460
H           -4.39727036377471       -0.73930359362201       -1.32972255283820
H           -2.82598253429519       -0.11194654220801       -1.89322955845533
H           -3.13006043641559       -2.30217008555754       -2.83024795180331
H           -1.89256838567435       -2.47096668675661       -1.55347255081559
H           -3.66795657254781       -4.06292080512374       -1.43667754557573
