34
 energy: -42.469119314734 gnorm: 0.000259274857 xtb: 6.7.1 (edcfbbe)
O            1.72040336935585       -0.24402306863042       -0.08062417312016
C            0.61960160979434        0.44506490944023        0.47900181446843
C            1.07717821326670        1.22706345658186        1.72938391592038
C            2.56809799924545        1.56578943813375        1.75493854632167
N            3.01752453487540        2.77058606881485        0.99799726809891
C            2.55479010528180        4.03980188724769        1.65482669256715
C            3.08814733034585        4.25523519509234        3.04755760392123
C            2.38548357176756        3.78731757822223        4.15409211013891
C            2.86792966057068        4.00284457938797        5.43323401666948
C            4.05279599886176        4.69433734558248        5.62196214716591
C            4.74842845035680        5.18066121500283        4.52771814573105
C            4.26867496090238        4.96424761525142        3.24801799132339
C            4.49126962972682        2.73967128017123        0.95787598441969
C            2.51627042453291        2.74585170651948       -0.38658545685846
H            1.40063190337512       -0.97321314929388       -0.61991213767739
H            0.18680619409216        1.11951025890296       -0.27279666625675
H           -0.16552467889948       -0.25533458067413        0.77885989791393
H            0.44668863801074        2.10652581721637        1.85210549841460
H            0.91319293397235        0.58989944930956        2.59941340087091
H            2.88381599543338        1.71150331253178        2.78926344240171
H            3.09477680173678        0.70195002842881        1.34450488626979
H            2.86817066243310        4.86582842992899        1.01252742870256
H            1.46408745168481        4.02087892639207        1.68101570441494
H            1.44565833149323        3.27097817093366        4.02156132796291
H            2.31207638584623        3.63812133367876        6.28252608422119
H            4.42537000286132        4.86599896557457        6.61922401551189
H            5.66167518846064        5.73689116418536        4.66908613563645
H            4.80862222110250        5.36863628791362        2.40432974776382
H            4.82654616996442        1.86345141829879        0.40613207389222
H            4.87065817313961        3.63125434236096        0.46218366776631
H            4.89573658928467        2.70077594317650        1.96752997151361
H            2.67786853220392        1.75702344380842       -0.81324348908924
H            1.45338703395989        2.97146306604269       -0.40877876326958
H            3.03892961097091        3.48766816444675       -0.98752883373589
