24
 energy: -36.043403819597 gnorm: 0.000627210116 xtb: 6.7.1 (edcfbbe)
C            0.39290834619942        0.12655699076717       -0.11393255731738
C            1.12323797463110        1.43531353912896       -0.36456974787536
O            1.53187116833366        1.55341085488024       -1.74279854576720
C            2.63795921555966        0.94311494829329       -2.10058626937716
O            3.37421041285113        0.29800523808394       -1.40387178901450
C            2.93760644089641        1.15164709698219       -3.57143916807568
C            2.13312533040638        1.90172481337380       -4.42581244525230
C            2.51980477520013        2.02622441487738       -5.75348749711829
C            3.67796096779996        1.41136742551623       -6.18741979232832
N            4.43845124156422        0.69524729003600       -5.35085042358343
C            4.08575785917861        0.56063915946639       -4.07087932411747
C            5.63804831841578        0.04082051851636       -5.82237886935293
H           -0.46036610181981        0.03096828464562       -0.78091182078993
H            0.03897649411900        0.10980653981251        0.91209211831254
H            1.06186210454314       -0.71739128992629       -0.26416652284447
H            0.47076213753766        2.29354835450758       -0.19942946962784
H            2.01124190151144        1.50674067912152        0.26958443904442
H            1.23586614089354        2.37018527262157       -4.05206239648696
H            1.92902965554063        2.59853043563489       -6.45115018690318
H            4.00446135490144        1.49003782040740       -7.21423014535235
H            4.71508574643974       -0.02373569174088       -3.41137033690928
H            6.45329659609334        0.19316996879787       -5.11580919887798
H            5.46483697046900       -1.03315413596910       -5.91556869632936
H            5.93221494873487        0.43154147216513       -6.79397135405533
