30
 energy: -33.914373505479 gnorm: 0.000366097987 xtb: 6.7.1 (edcfbbe)
C            1.84544617952066       -0.24170401228815       -0.28314303257579
C            0.58951897470405       -1.01347686940394       -0.67142665903665
C            0.47480530769977       -2.36872913253312        0.04879984006394
C            0.16277937196006       -2.22263886604526        1.56487992701915
N           -1.25759717770724       -2.34058951761041        2.00631391479124
C           -1.68511725478407       -3.75380735125387        1.99132036129225
C           -1.34821274233038       -1.84075727268889        3.39264459393840
C           -2.16431736377385       -1.54914385294592        1.15643464790753
O           -0.48285605400337       -3.21911166366920       -0.55960970287884
C           -0.02114260179027       -3.93644155598968       -1.68929842321698
H            1.83568684966108        0.06395835179969        0.76062072317921
H            1.92333643514974        0.65597301079546       -0.88929054085509
H            2.73514666931874       -0.84228960007255       -0.45396242125729
H           -0.29518237254729       -0.40304727848687       -0.49360648045712
H            0.62913374217616       -1.21531274405814       -1.74264982023659
H            1.46323568447282       -2.85149539157611       -0.01181984112751
H            0.72247734444303       -2.98133128504903        2.11473863802123
H            0.53162630961524       -1.24284968285962        1.87207042948912
H           -1.07283956776029       -4.33846721714090        2.67514424285468
H           -2.72565797907366       -3.83049020572938        2.29984029061276
H           -1.57763376185322       -4.15025425773752        0.98431027326102
H           -1.10979617263395       -0.77919271876058        3.43326379298899
H           -2.35855673239287       -1.98307281531233        3.77244722477139
H           -0.65599478777207       -2.37942162278061        4.03763486789684
H           -1.87418249544358       -0.50062140000924        1.17512024651170
H           -2.12414060241784       -1.92471387877758        0.13611969741648
H           -3.18435900717679       -1.63411639606868        1.52687338981764
H           -0.85233634911523       -4.56291210679408       -2.00454843532516
H            0.25628206178425       -3.27053604757217       -2.50888399848525
H            0.83546809207134       -4.56475661937993       -1.42856774638216
