13
 energy: -17.581887779454 gnorm: 0.000344273216 xtb: 6.7.1 (edcfbbe)
C            2.16342457708800        0.00943080376546        0.01461455658652
N            0.72584688675362        0.00217401766913        0.00841972358412
C           -0.07244316702439        1.06083115106143        0.00551357133432
N           -1.33790500866831        0.64463821694916        0.00223966331819
C           -1.35123982742739       -0.71584686341763        0.00318028011550
C           -0.05063679105625       -1.11937288748147        0.00725711523355
H            2.53650953182370       -0.48094868366235        0.91471119461863
H            2.54382640366330       -0.53010551893370       -0.85343452124529
H            2.53244689703731        1.03212758085958       -0.01191706526169
H            0.24831978014370        2.08529651880777        0.00557165085895
H           -2.15571313854344        1.24014610523950       -0.00084019406694
H           -2.25414830098476       -1.29191386677571        0.00084921161540
H            0.36454215719490       -2.10693657408117        0.00923481330875
