35
 energy: -50.300459704952 gnorm: 0.000471374236 xtb: 6.7.1 (edcfbbe)
C            0.73353623721208        0.17161111383228       -0.02814976394401
C            0.65780166599888       -1.11522266085372        0.76967879187751
C            1.70131360887225       -1.46176971548750        1.61879275777825
C            1.63129796441953       -2.62503450319621        2.36424890502642
C            0.51780732259708       -3.44363618461460        2.26869417487589
C           -0.52443444874377       -3.09922232012362        1.42515150080879
C           -0.45912228695950       -1.93397930703276        0.68034321069292
N            0.51864974848836        1.29996241697397        0.86876757193891
C           -0.71327605421090        1.53336817708697        1.32741042318861
C           -0.97492943016799        2.54132290759970        2.24052300515521
C            0.09702722941151        3.29286740018507        2.72302817293272
C            1.37096963152742        3.02568494098029        2.24292935640101
C            1.55156205681442        2.02732045728686        1.30679601708823
C           -2.36486494848490        2.57084946458603        2.84573467328994
N           -3.00934810412259        3.73861074600071        2.91774799071392
C           -4.28986539845536        3.79250060119890        3.59247621382869
C           -2.57278984457639        4.97738603505853        2.32174851140655
O           -2.78862165546653        1.50779366886015        3.25910565565463
H           -0.03712243037204        0.17894004664299       -0.80140011702880
H            1.71254617125456        0.27450266648933       -0.49979265788204
H            2.57558887923121       -0.83029921875087        1.69284111983498
H            2.44720911962164       -2.89220417311052        3.01727264119441
H            0.46462912871516       -4.35070764463381        2.84989314518862
H           -1.39099089332966       -3.73623153414682        1.34460341679072
H           -1.27148796920464       -1.67723545636182        0.01626012884117
H           -1.51051723321000        0.88904239143892        0.98516359019136
H           -0.05793673403419        4.05656805092726        3.46901856094879
H            2.22300712275028        3.58598748760700        2.59346159391386
H            2.52768757016626        1.80112636658567        0.90454230965306
H           -4.25251182199118        4.52822842667034        4.39616684101077
H           -5.07679388555718        4.07126553225544        2.89107194631584
H           -4.50667936603571        2.81093850860130        4.00726030055494
H           -2.27453683055258        5.69235044929065        3.09274868226326
H           -1.74319802948980        4.81713432655244        1.63719579911624
H           -3.40118609211923        5.41497053559997        1.76160553037948
