47
 energy: -48.830527737635 gnorm: 0.000178224420 xtb: 6.7.1 (edcfbbe)
C            0.30367980401614       -0.59035035822901        0.31397311216838
C           -0.74518557432851       -0.18213320837269        1.33646581756562
N            0.14618447774770       -0.12639754099187       -1.10233306110665
C            0.96204237498998       -1.07242041919412       -1.95087816123859
C            0.41421372601952       -2.48052088376248       -2.14031062951440
C           -1.26651039189613       -0.20040727581619       -1.59769725818180
C           -2.19782928363116        0.97181497685313       -1.32553781823357
C            0.75959649173868        1.22491143214696       -1.34849553332381
C            0.51277135839702        2.38210536074151       -0.37255445176448
C            1.50914395691407        2.52099239632837        0.78601606714120
C            2.97423714304282        2.68781397453577        0.37526705167068
C            3.26575378816343        3.90251695604119       -0.50842969317074
C            2.88090551941843        5.25146589791415        0.10421943415830
C            3.53753352945458        5.55895013681281        1.45137541312601
C            5.05903746038651        5.60984348106984        1.38297735052236
H            0.31448817089771       -1.68070912028670        0.29225205630177
H            1.28846085587667       -0.25478074575506        0.64148769316483
H           -0.80854259144267        0.88945444317125        1.48388687590418
H           -1.72776499643297       -0.57430929265065        1.09266710457934
H           -0.45013475355525       -0.62230421489846        2.28697704466505
H            1.07299030005671       -0.61419055199130       -2.93595269356396
H            1.95165253848565       -1.13794184462324       -1.49340048881618
H           -0.49499256740871       -2.50023338117816       -2.73306880037223
H            1.16655662057094       -3.04948385068546       -2.68149102246016
H            0.23191600173505       -3.00117625837819       -1.20442215489835
H           -1.20830624799667       -0.31381651119944       -2.68245311403593
H           -1.70190780293377       -1.11006174880830       -1.18272449431780
H           -1.85325474493164        1.88773009487582       -1.79492244395463
H           -3.15814237133920        0.72129627560584       -1.77194596372727
H           -2.36913767294675        1.15008658931386       -0.27058361430164
H            1.83987288937028        1.07892807147767       -1.40202557123356
H            0.42099246372992        1.52303592207850       -2.34260747872263
H            0.58622381953424        3.29259965328137       -0.96975455651224
H           -0.49553970474827        2.36051041715331        0.02969200709796
H            1.21066007919468        3.40368942240047        1.35241128066298
H            1.43754019567960        1.67523483304618        1.47095018251529
H            3.56321013739884        2.76944498095909        1.28906029382691
H            3.33105094323930        1.79122493873372       -0.14118656216961
H            4.33424819046257        3.90763837386914       -0.72666023547385
H            2.74912316514351        3.79722233462629       -1.46611356846777
H            3.16658635049695        6.03115361836800       -0.60503686974938
H            1.79599857537945        5.30758118088767        0.22181823355578
H            3.16907767157118        6.53015159466836        1.78814802233226
H            3.23035557301455        4.82289831330542        2.19710173902538
H            5.38194767581509        6.31318421104148        0.61915675572163
H            5.46516205935260        5.93391007161922        2.33773994918578
H            5.47970479630122        4.63390725389700        1.15350275440788
