63
 energy: -70.049046709761 gnorm: 0.000257802410 xtb: 6.7.1 (edcfbbe)
C            1.91710281855168       -0.57593876795924       -0.52781406599669
C            1.52130863944464       -2.04083299654197       -0.38644079884882
C            1.61972243712595       -2.55669117981581        1.05004047125841
C            0.70428055843753       -1.85134753262620        2.05283382089400
C           -0.78980331521338       -1.93791671993171        1.73544244758779
C           -1.35128960822028       -3.35875764184518        1.65221254249929
C           -1.16427072516758       -4.20234697001323        2.91509495734799
C           -1.76031678545819       -3.59750591372828        4.18803861205794
C           -3.26275086448444       -3.31715025115790        4.12015914021793
C           -4.13894364832881       -4.54307598285449        3.85190199436810
C           -3.95972502119539       -5.70789058033657        4.83554693868728
C           -4.08502447137492       -5.37208178516316        6.32571907912636
N           -5.44243761134137       -5.46642929026862        6.94085754416152
C           -5.91107594078866       -6.89660297605959        6.99247575869429
C           -5.05604903773519       -7.81794920737521        7.82352051523522
C           -3.98154877583680       -8.49275083106887        7.25113930933189
C           -3.21110624176518       -9.35659546855873        8.00979732738242
C           -3.51049448353096       -9.56450903415388        9.34560390847128
C           -4.59172739900984       -8.91547236988032        9.91778504284018
C           -5.36096195181407       -8.04889936833884        9.16164947211969
C           -5.37675209387962       -4.94839310405367        8.34347293653700
C           -5.11888959113727       -3.45719413070546        8.49879549361451
C           -6.43201287432932       -4.69453539241177        6.17164620901485
H            1.21599260706807        0.07372717104277       -0.01006995674472
H            1.92924684828387       -0.28958922624667       -1.57673372758147
H            2.91029864915118       -0.40910572120830       -0.11675385285044
H            0.50753998517472       -2.18274125549484       -0.76550381649514
H            2.18615987773883       -2.64583673881007       -1.00756278310383
H            1.40528623820965       -3.62766986710434        1.05271847370997
H            2.65027308827662       -2.43356676883487        1.39235744877144
H            0.89106008689418       -2.27460630667223        3.04264169518545
H            0.97879162209640       -0.79633545298984        2.10330912234606
H           -1.33498632426355       -1.37416089573891        2.49654312833260
H           -0.98079743413356       -1.44433826488686        0.78122368516852
H           -2.41482199193332       -3.29420015955230        1.40940204535636
H           -0.87067102042364       -3.88320959754372        0.82502208797892
H           -1.60000100898919       -5.18864915138219        2.73660433920688
H           -0.09754388320531       -4.35452783396091        3.08543204780468
H           -1.54470017000555       -4.26828094460453        5.02433092149578
H           -1.25385818784202       -2.65519145880044        4.40052498409180
H           -3.56887832044794       -2.82658957782388        5.04949534839114
H           -3.45057841597916       -2.59976808434555        3.32120454708104
H           -5.17949184823459       -4.21831723600153        3.81134973407907
H           -3.89645438179168       -4.92899728844991        2.86129636004493
H           -4.64200047406587       -6.50991179066409        4.55122725984132
H           -2.95068080218485       -6.09845316662054        4.69600801128710
H           -3.44591536222830       -6.04439001499849        6.90164123515817
H           -3.72562131569246       -4.35559582277414        6.47497683930496
H           -6.92862902545952       -6.88692337195659        7.38925246362131
H           -5.94989358664872       -7.26764345442233        5.96738992036592
H           -3.75541193195822       -8.36309778089798        6.20285804130992
H           -2.38271744814520       -9.87472870960545        7.55290202346372
H           -2.91279647783802      -10.24181744339832        9.93452097710293
H           -4.84343297063925       -9.08926656211646       10.95197639929594
H           -6.21506300261253       -7.56667119234675        9.61441361396682
H           -6.33228813582939       -5.18355139347066        8.81671179923466
H           -4.59465335968144       -5.50801917276283        8.86024356516304
H           -5.91096053500513       -2.85206535252189        8.06789842134510
H           -5.08844584171542       -3.24070257469799        9.56382626381699
H           -4.16500984130150       -3.14634358409906        8.08313222410504
H           -6.05474767604544       -3.69491220220088        5.97247568235016
H           -6.63857909931003       -5.18792754386820        5.22515881328302
H           -7.36271314192507       -4.61985671254519        6.73212595706526
