17
 energy: -22.853431183597 gnorm: 0.000783437482 xtb: 6.7.1 (edcfbbe)
C            1.31672732656229       -0.24892121493877        0.11082694351028
C            0.31541937471001       -0.90601146054187       -0.83631172119735
N            0.72757763032166       -0.08760712506005        1.43024443804800
C            0.76379731154763       -1.09734613938122        2.32072030918910
N            0.21508417434029       -1.04143286368855        3.49696330074151
C           -0.42190739145449        0.06142026782382        3.86134346603097
C           -0.51464763010396        1.15568125075912        3.00313292917695
C            0.08531856490576        1.03934446959777        1.76453530047264
H            1.60536046272685        0.73280217172886       -0.26903748690978
H            2.20999467197350       -0.86986710886969        0.20076706864440
H            0.02914579875754       -1.89278282946162       -0.48108265560267
H           -0.57928473829682       -0.29754143698274       -0.94412211611871
H            0.77286376019223       -1.01549482661367       -1.81506804108998
H            1.28257353183906       -2.00609387120631        2.04331019061865
H           -0.85764099119055        0.05799936518447        4.85113382199256
H           -1.02949757435153        2.05996539643638        3.28469362263789
H            0.06238571752051        1.83905595521404        1.03613062985556
