23
 energy: -31.967213735764 gnorm: 0.000858642979 xtb: 6.7.1 (edcfbbe)
C            0.99483892371770        0.78266632758264       -1.26416921395862
C            0.31672917377191        1.28884104973664       -0.03921314989455
O           -0.86389493935679        1.31709615101969        0.15635840955269
C            1.29781991784465        1.80126375648776        1.05260621303690
N            0.59076275395415        2.01411145897926        2.29507253352420
C            0.61688823929931        1.03198258077579        3.21417654845076
C           -0.11702807702502        1.09926040916815        4.37143033080701
C           -0.91950170120838        2.21606701753812        4.58865760708237
C           -0.93809778184296        3.21338393309028        3.63331889583522
C           -0.18084218315093        3.10811622479616        2.46995145378175
C           -0.21255930808816        4.18192618514141        1.44596247708191
H            0.29986325305742        0.78568666014775       -2.10009199705578
H            1.30110435607615       -0.24958616719200       -1.09242609694035
H            1.88200670442730        1.36101473969009       -1.50570711853410
H            2.09146266794840        1.06572842682247        1.19417471243834
H            1.74944969418666        2.72992910804429        0.69761818754490
H            1.24474808604966        0.17967785136889        3.00080018320131
H           -0.06952792660231        0.29415847958404        5.08598377259311
H           -1.51629744708768        2.30002448527457        5.48284758799739
H           -1.55234477874129        4.08867438348646        3.77301858987915
H           -0.82799140923537        5.00730514245414        1.78992361929622
H            0.78424332309947        4.56913888102317        1.23592930703869
H           -0.63783154109400        3.81206291498174        0.51378714724213
