36
 energy: -66.147673328215 gnorm: 0.000879891782 xtb: 6.7.1 (edcfbbe)
O            1.89542828856583        1.00173188092509       -0.61583393156221
N            2.67564516355367        0.31640521865570       -0.00464569059027
O            3.04342343269976        0.48175076916334        1.13030198630909
C            3.23456749461060       -0.83466250662163       -0.71525771097403
C            4.04610381862574       -1.72543983303469       -0.02752991479871
C            4.57244502419205       -2.81313395240020       -0.69709134616999
C            4.27755871388553       -3.00822264934555       -2.04960192887973
C            3.45735769798548       -2.10167788086456       -2.72744496843652
C            2.93786525882777       -1.00990579508868       -2.05912178621412
C            4.82540594443581       -4.16607802439442       -2.75386426004035
N            4.09714922758968       -5.06648944855157       -3.43385533430235
C            2.66417757555724       -5.10780658847153       -3.57156202060528
C            4.95213869874139       -6.01295805339549       -3.95292974450131
C            6.25075256305314       -5.64254352084362       -3.55208762410900
N            6.12500482838314       -4.48840840181788       -2.80947351494610
C            7.23911360149432       -3.75579955325781       -2.26556569309842
C            7.36005098425230       -6.39374776320687       -3.90839272216274
C            7.10859722985275       -7.51621914226819       -4.67634263003543
C            5.82448965028862       -7.89344360957322       -5.08324804689645
C            4.72218331857182       -7.14645321533272       -4.72678043281801
N            8.24680150553057       -8.34568907836181       -5.08062205294615
O            9.33084780951198       -7.99566000546222       -4.68687484827989
O            8.00659719357693       -9.30181781267653       -5.76948850035140
H            4.25103546789979       -1.55495611161334        1.01886118146311
H            5.18407499509906       -3.52552892384114       -0.16563440069168
H            3.25261794938910       -2.23440239710229       -3.77815010893119
H            2.30613669983569       -0.29106861320692       -2.55949970686008
H            2.37183779031360       -4.83732769600063       -4.58763923887179
H            2.31133322367851       -6.11834858135926       -3.36563401540314
H            2.20120600822802       -4.41896066722697       -2.86868995878309
H            6.91330538572754       -2.77352459022163       -1.93105771377787
H            7.67613222733754       -4.29816265809127       -1.42554910473438
H            8.00191440885047       -3.63596446061183       -3.03535491162011
H            8.37004949188550       -6.14892929367607       -3.61859553847723
H            5.72161512296004       -8.78530715272633       -5.68363242448439
H            3.73172620501048       -7.43123988809546       -5.03964134242224
