40
 energy: -62.925942328843 gnorm: 0.000557631379 xtb: 6.7.1 (edcfbbe)
O            4.16033046776481       -1.66989877031260        0.82976982350155
C            3.58674168298892       -0.60848126071136        0.91823314095889
C            4.13053177289984        0.57792800984049        1.57154687187988
C            3.52246371255491        1.83696413876148        1.52053720776136
C            4.10474378833012        2.90889657066542        2.16754646451972
C            5.28836745443502        2.74546107163059        2.87418055845055
C            5.90165429514604        1.50293583069292        2.92691043614498
C            5.33116191617794        0.42752556937451        2.27784179249694
C            2.16724474146939       -0.48702765941608        0.29120327327474
N            1.70766783783245       -1.80720287871704       -0.02096942071316
C            0.71098291766709       -2.49545349493009        0.60646455159091
C            0.75210183519789       -3.77410738249034        0.14769422056448
N            1.79327045602856       -3.85697845910430       -0.72950102799180
C            2.35458616619093       -2.65302202184063       -0.82065526128117
C            2.10846418973316       -4.95945483655485       -1.58822027773464
C            1.84833506112079       -4.52143503393104       -3.05827008192361
O            1.65994811663288       -3.34744561112521       -3.28043220404796
C            1.85465780420350       -5.56962181895999       -4.07429651111418
C            1.46469299427272       -5.20976496096292       -5.37089620375869
C            1.44411613378678       -6.14817165377451       -6.38213246058207
C            1.81938894045203       -7.45675079188188       -6.11736264675643
C            2.21766475660506       -7.82227736514675       -4.83887306921111
C            2.23506900381254       -6.89173051451824       -3.81888087154784
H            2.61008558107428        1.99198571068848        0.96679472499292
H            3.63553975414741        3.87933563293800        2.12245331741189
H            5.73181224647004        3.58863094048480        3.38086332346710
H            6.82374899833865        1.37592936233704        3.47232330540868
H            5.79291111733795       -0.54776571405660        2.30556241547096
H            1.47281764034261       -0.01474632150854        0.98560820166609
H            2.24671953452439        0.11539345393744       -0.61843149950107
H            0.05009895713894       -2.03829925474937        1.31395832290059
H            0.13064557244739       -4.61222206726325        0.38777175559659
H            3.19210781401679       -2.40399956020328       -1.44077721318110
H            3.16524743884572       -5.22572512807679       -1.49366848203605
H            1.48866885850513       -5.81554951426957       -1.32242893042084
H            1.17734246788538       -4.18596413356260       -5.55622574803708
H            1.13797487246241       -5.86245127742997       -7.37629032471097
H            1.80485180911627       -8.19303948188102       -6.90598875884339
H            2.51595466671533       -8.83981639829531       -4.63904257792829
H            2.56000662534712       -7.19756292567542       -2.83671013673480
