45
 energy: -61.976055395999 gnorm: 0.000214063195 xtb: 6.7.1 (edcfbbe)
C           -0.95500713731244        1.66888460683112       -1.66745101216978
C           -0.56059181793197        0.90544994546519       -0.40989118491118
O            0.35438174416566        1.59832157843613        0.42764344388654
C            1.64636872757925        1.75442944638862       -0.10855816373281
C            2.53955251294161        2.27160083324091        1.02701346297102
N            2.45999286551495        1.36380365791454        2.14226178438566
C            1.48726671697907        1.36520746640938        3.04687225125109
N            1.57477060434638        0.31459819874951        3.85443701874888
C            2.68287972851708       -0.41552389933992        3.47477131625716
C            3.23975712307822        0.24729685705317        2.36308169337485
C            4.37306257126347       -0.24290895058479        1.72549296582987
C            4.92598172478784       -1.40050592383875        2.23361139830114
C            4.37569691194745       -2.05567492641667        3.33896894356106
C            3.24930869406731       -1.58023481357665        3.97837858882767
C            0.80068928498891        0.12828746854194        5.05539166264610
C            1.52015538152711        0.80074954467085        6.24158571259375
C            1.78644356229468        2.24644389493281        5.92461464466819
C            2.97926264693078        2.62152146141902        5.31560019575697
C            3.20434861103018        3.94117820143895        4.96240269811596
C            2.23681328546780        4.89945443690892        5.21167843130738
C            1.04698891482249        4.53499304308305        5.82074220734629
C            0.82118436169842        3.21527113697726        6.17020596106084
H           -1.30226038601715        2.66554259940594       -1.40769300305094
H           -1.75977015981444        1.13820061839534       -2.16706545357736
H           -0.12083973578064        1.75326458328985       -2.35947897141413
H           -1.43602897170253        0.75129010441404        0.22453280977224
H           -0.13888743864235       -0.07432798265203       -0.67764433654460
H            2.02190281339960        0.78872089270033       -0.48132341808793
H            1.66128770193187        2.47957084148372       -0.93102821364150
H            3.57385207820674        2.35464092853281        0.69393176271778
H            2.17739282203159        3.24872981168949        1.35157955777912
H            0.71673513399298        2.11063701148054        3.09359744743241
H            4.80348598158699        0.25423979021409        0.87172014816195
H            5.80639526957807       -1.81308321541244        1.76751650739278
H            4.84672480640509       -2.95595330744623        3.69973603874465
H            2.83236818265931       -2.09134732544546        4.83052692564431
H           -0.17909404263084        0.58586464346615        4.90660181545238
H            0.67342281339039       -0.94018421870046        5.23584380180592
H            0.88356336928381        0.71091293218090        7.12124131698429
H            2.45871576239702        0.28006295365244        6.43770922482993
H            3.74942703555795        1.88127796282990        5.14141363894109
H            4.13991337255817        4.22143929871960        4.50221427059341
H            2.41426336634271        5.92941105837267        4.94419752975696
H            0.29632847123017        5.28140409111580        6.02931165509488
H           -0.10477526466253        2.93682266306287        6.65168492510677
