48
 energy: -52.497955314654 gnorm: 0.000333463812 xtb: 6.7.1 (edcfbbe)
C            0.70540498497033        0.14314007383822       -1.30299712661388
C           -0.24324078725406        1.11862530992672       -0.59973848891802
C            0.03176523552938        2.56571917436261       -1.01521728629427
C           -0.28642166286781        2.83980400465896       -2.48079236846897
P            0.53223675975392       -1.57057719530153       -0.71073733469864
C            1.21062764537503       -1.67078338878295        0.99242689375719
O            0.29055560994092       -0.96863298094696        1.77787916001720
C            0.62210823514086       -0.93661470821904        3.15588145805019
C           -1.22103807549587       -2.03702684905231       -0.55413347131023
C           -2.04195504991221       -1.92392154339306       -1.84453412715220
C           -2.05166834010840       -3.21160236625204       -2.67175394271356
C           -2.90509134801311       -4.30806669105158       -2.04505279675122
C            1.52980758655520       -2.75719934799790       -1.68797194618628
C            1.57238903346543       -2.49351224072306       -3.19883234818354
C            2.75122924972795       -1.61191290580580       -3.61862006710821
C            4.08752212315874       -2.34228009753291       -3.55237821666760
H            1.74472969778014        0.44030585810790       -1.12945790284967
H            0.52768379421315        0.14495922743662       -2.38127044250616
H           -1.27748495047897        0.87259778127656       -0.84652806604247
H           -0.12364469522681        1.02622484063191        0.48058789289469
H           -0.58556398788997        3.21596300028995       -0.39411700649151
H            1.07566230964154        2.81403574306368       -0.81399433254151
H           -1.30541081613630        2.53926265873191       -2.71473260155899
H           -0.19448550368264        3.90249193245761       -2.68556673383882
H            0.39496771681128        2.31554179859011       -3.14666575051296
H            1.29751455969555       -2.72565403436086        1.30465593852356
H            2.21584116437329       -1.21762202567640        1.02588884202280
H            0.67503721908154       -1.94881719094427        3.56713961916508
H            1.57800679284425       -0.42956948099278        3.31697435579869
H           -0.17405849206419       -0.38289025480479        3.64665169731956
H           -1.25550370520829       -3.05703494361955       -0.16211624996835
H           -1.61148332852560       -1.37364010857837        0.22362314987823
H           -3.07261953284590       -1.68269089612176       -1.57893260703140
H           -1.66516137102981       -1.09957927263637       -2.45488873475266
H           -2.45570603609665       -2.98125870602482       -3.65868265596392
H           -1.03207094994389       -3.57575127095482       -2.80992590977432
H           -3.93166659578905       -3.97081281312506       -1.92834423188525
H           -2.90868780464995       -5.18674820872883       -2.68372844546238
H           -2.53080581787527       -4.60650333198624       -1.06850142540163
H            2.54373702574674       -2.74019048633822       -1.27879785946857
H            1.10960984701463       -3.74455035944794       -1.47330384164170
H            1.66240418315168       -3.44927230968460       -3.71778081882174
H            0.63671621454945       -2.03604774037500       -3.52701521076916
H            2.58568019154186       -1.28685160536657       -4.64657310216969
H            2.79381207479605       -0.71924046716296       -2.99160060111891
H            4.07327811326620       -3.22109506341725       -4.19143913558232
H            4.88495801092142       -1.68874997270532       -3.89424946630782
H            4.32750347204593       -2.65952054526234       -2.54009635390048
