14
 energy: -21.119583465116 gnorm: 0.000847939977 xtb: 6.7.1 (edcfbbe)
C            1.04640554139473        0.92240601711441        2.37685633017557
C            0.41290519112918       -0.12582820567246        1.47579000276993
N            0.79886979787401        0.12241022269941        0.05000333293148
C           -1.12211047108999       -0.08608168720182        1.62319245720218
O           -1.68473453643524       -0.29881626937791        2.64541371379745
O           -1.69962931146333        0.22693401178928        0.46049905182467
H            2.13133684146224        0.85729951736343        2.35361158868280
H            0.72206304444509        0.75371109562700        3.40091345936494
H            0.73907074158317        1.92635631235395        2.09224185255023
H            0.75211356478468       -1.12488509281525        1.76670816407494
H            0.40289834347840        1.02470349472763       -0.25303092248052
H            1.82224805702811        0.15498973634373       -0.04554775978813
H            0.41676488310998       -0.60413534858735       -0.57032908411389
H           -2.66787168730103        0.26550619563594        0.54296781300834
