43
 energy: -66.772998707173 gnorm: 0.000361750380 xtb: 6.7.1 (edcfbbe)
C            2.14850009992912       -0.98522018405649       -0.03006710475948
C            2.74350494300678       -0.99037508855589        1.36738072956896
O            1.94562860241503       -0.19547008234947        2.27017560975127
C            2.19248958798046        1.08686247919154        2.34508395288459
O            3.03878031952470        1.71079785877785        1.76395852284378
C            1.23517576328603        1.76659011844584        3.35344465429059
N            1.33656129998142        3.19104169281553        3.20949849106343
C            2.43279812876540        3.92044090254606        3.45915534971572
C            3.64811664191270        3.45540756377427        4.15296604756244
N            2.26077251335588        5.16707405570527        3.00667278306705
C            0.99949473278417        5.26636978823924        2.44948779201823
C            0.41418336738879        3.99413531230912        2.55942002307765
C           -0.86311322819927        3.74604762317613        2.07582572892005
C           -1.52735872741171        4.80455534656427        1.48846501300141
C           -0.94681293259808        6.07005008300832        1.38448928571399
C            0.32340119893842        6.32619372230522        1.86080625429845
C            3.18744760835440        6.25398083094536        3.14548023223333
C            3.05426881699056        6.98582188768297        4.49810183265429
O            3.65032442558428        7.98914556793159        4.74630023542032
O            2.21048052450086        6.34594334460752        5.29719039221436
C            1.99602060145394        6.90478838639347        6.60880201799560
C            3.04457316846672        6.41352575554148        7.59212419307740
H            1.12198298235876       -1.34176156251528       -0.00685865149868
H            2.73247229477962       -1.64059796870786       -0.66861126507541
H            2.16914223912728        0.01807749671910       -0.44926913961956
H            2.73300485699709       -1.99147095881103        1.79997787139859
H            3.76222445940890       -0.59311089522754        1.35705783137939
H            0.21241762966609        1.44573783810885        3.15776562590361
H            1.50692112022807        1.44757077391434        4.36352881839811
H            3.45631520519581        2.54428307930153        4.71174546396117
H            4.43222278020322        3.23914862969022        3.42522030936794
H            4.01075321031015        4.21899165519870        4.83792506681752
H           -1.32698106285258        2.77610320020140        2.14969262977862
H           -2.52145225269984        4.65150708218838        1.10005797116928
H           -1.50643798113599        6.86611433723173        0.92026753730302
H            0.75967900553802        7.30826587549974        1.78145715951567
H            4.21653433376235        5.89774317438785        3.05058786108900
H            3.01537568712057        6.98508999735546        2.35252263112746
H            2.02347274846926        7.99476012214052        6.53253197544437
H            0.99584043583298        6.57296509359945        6.89107554963308
H            4.03294548324957        6.75358559222794        7.29231074015582
H            2.82586732188632        6.81613400176214        8.57609131210247
H            3.03956204620256        5.32744647072126        7.65015066503213
