80
 energy: -83.640345861390 gnorm: 0.000191526310 xtb: 6.7.1 (edcfbbe)
C            2.69763265254463       -0.79878629908987       -1.13888112309129
C            2.05998523389685       -2.12719203009931       -1.52781269027894
C            1.91998540933086       -3.09669614963338       -0.35298653184930
C            1.03024311037651       -2.60066363062818        0.78902250544314
C           -0.41377187232113       -2.28897158776861        0.39089882101851
C           -1.18916025363335       -3.46078959189646       -0.21742445148209
C           -1.22385566211823       -4.73589849389040        0.63556781213716
C           -1.75642859092483       -4.57774444974331        2.06415922638757
N           -3.21207707948179       -4.83363137218828        2.29126964409233
C           -3.52982544905122       -6.29148507837485        2.13886751811060
C           -2.97256076911960       -7.26874953038076        3.18065975491946
C           -3.86249558118486       -7.56814695470305        4.39536409148082
C           -5.28823393249566       -8.01963311072064        4.06876034734797
C           -5.38875205335136       -9.22871238964447        3.13648763825256
C           -4.69111900429554      -10.49251246789481        3.64451815535288
C           -5.19857190659485      -11.01217170849436        4.99073320744923
C           -6.67307193125730      -11.39670901411605        4.97091928097904
C           -3.56900164419291       -4.39593963604708        3.67582106276625
C           -3.59738557712594       -2.88569433045476        3.94670318221929
C           -4.99154227809120       -2.24592039399804        3.92392752807506
C           -5.99270312615489       -2.83722239277810        4.92021976106053
C           -5.53130259463565       -2.84642001625487        6.37890087767318
C           -5.16803746200159       -1.47381569800674        6.94974585865026
C           -6.29798836641742       -0.44330955896016        6.91680700994204
C           -7.51452237499793       -0.85727221691088        7.73591675331565
C           -4.03649918784043       -4.10802865865495        1.30982993588673
H            2.05118577400630       -0.22557757979641       -0.47886312468297
H            2.88545547542103       -0.20032574083249       -2.02656375057353
H            3.64622859991793       -0.96587556309894       -0.63394571217291
H            1.08499342129915       -1.94453958429983       -1.98387763957790
H            2.68405808950503       -2.60766998407335       -2.28417115153874
H            1.54155164321103       -4.05021177770408       -0.72881466798577
H            2.91392441692946       -3.28548227529670        0.05851341437818
H            1.04080609257960       -3.34850665746121        1.58639569011505
H            1.46627879191095       -1.69145596820876        1.20440560162838
H           -0.93819639921393       -1.90170490658948        1.26990849192704
H           -0.41167344547729       -1.48218748035627       -0.34224131534426
H           -2.19817132440918       -3.11838957414520       -0.45212603971186
H           -0.72162284709947       -3.72776575143222       -1.16558861027474
H           -1.77193603886877       -5.50641451478791        0.09172643793022
H           -0.19907400560237       -5.09820246644250        0.72312239699203
H           -1.21684979246553       -5.26162976326921        2.72015093507214
H           -1.54174087358046       -3.56503720411507        2.40266870882359
H           -4.61617759662423       -6.38585730698944        2.12087425791182
H           -3.15799754626937       -6.58460020990026        1.15629738219682
H           -2.81250198918600       -8.21199406652434        2.65678491817628
H           -1.99208264339818       -6.95003542352198        3.53688591194108
H           -3.36963331436421       -8.36362537628844        4.95504265575711
H           -3.91964836795217       -6.70824291703361        5.06428608465665
H           -5.77941499743919       -8.25955985716897        5.01192252914541
H           -5.85709049608921       -7.19429515915424        3.62907648962799
H           -6.44633555685904       -9.44802348268727        2.98551639634166
H           -4.97494345687970       -8.97661224289182        2.15649583200920
H           -4.83550734085733      -11.27463832435901        2.89600259815265
H           -3.61568044206635      -10.31555679283607        3.72065414187540
H           -4.60963432891243      -11.89422341247510        5.25058958177123
H           -5.02560039817989      -10.26849714970059        5.77113656916371
H           -6.87206185014427      -12.09910833013427        4.16489603163576
H           -6.94827203779250      -11.86961503674669        5.91009213450570
H           -7.30941048510651      -10.52564171018202        4.83525265947647
H           -4.55512281515958       -4.80506998100715        3.89553323146733
H           -2.84852386976882       -4.86529100771792        4.34512949610614
H           -3.17472194059963       -2.72353947947683        4.93834570130752
H           -2.95660101382589       -2.34303265532021        3.25069484557378
H           -4.86254953356065       -1.18738252508323        4.15077219853908
H           -5.42678223062456       -2.30385808370462        2.92457970220461
H           -6.91240762925040       -2.25701162322753        4.84368468694384
H           -6.25141180179294       -3.86187226170981        4.63669215176803
H           -6.33349762243226       -3.27584858752206        6.97993142083557
H           -4.66756499163888       -3.50776628220408        6.48821675042728
H           -4.86131105454270       -1.61645210489111        7.98826505920460
H           -4.30742175809049       -1.06650405025928        6.41381073880271
H           -5.90672862339074        0.49353904730899        7.31898559638106
H           -6.60095210231840       -0.24952795161856        5.88596175158996
H           -7.22174270844778       -1.10404113505631        8.75375527452716
H           -8.23242116146318       -0.04218051369971        7.77649527594993
H           -8.01170332480092       -1.72053235243628        7.30056956191331
H           -3.77228824230273       -3.05437281268477        1.30085863568302
H           -3.88700863521975       -4.51819377998819        0.31406445994619
H           -5.08873337954992       -4.20761150821213        1.57034244570194
