44
 energy: -59.798059108459 gnorm: 0.000899145131 xtb: 6.7.1 (edcfbbe)
O            1.19056770687836        0.29371720037778        0.56252580726689
C            2.32521173410719        0.53449095016143        0.21874920479235
C            2.68918811213182        1.49666788151371       -0.81951872135406
C            4.00766414833482        1.75404745917537       -1.20884604686894
C            4.26427762320608        2.68395131107595       -2.19688836472030
C            3.22124918680261        3.36721299595368       -2.80762647110996
C            1.91050540203897        3.11836905319300       -2.43006711739982
C            1.64484994929361        2.19050000641528       -1.44408613504300
C            3.48441070375695       -0.21317442040145        0.92883868878877
N            2.93014915340095       -1.06557986592973        1.94374436050136
C            2.34132242377100       -2.27366294599255        1.70708210349995
C            1.83115237501051       -2.71028595346105        2.88619262256349
N            2.10124327108726       -1.75561397062040        3.82373706573067
C            2.75275472235764       -0.74824731018930        3.23352811650142
C            3.25890408393690        0.46894061559840        3.89121911919386
C            4.53398540295317        0.48724549558471        4.26179482779210
C            2.30393054676349        1.64877177178978        4.06451633627064
C            0.85704020167045        1.25418753929922        3.75535104426415
C            2.38322996827168        2.17284449029388        5.50299293617386
C            2.73092884413970        2.76071803270331        3.09508004870054
C            1.76341323988135       -1.85762551407220        5.21818608632178
H            4.83456866146214        1.23405322006286       -0.75106726485575
H            5.28237058222885        2.87880972784151       -2.49583857560539
H            3.43306363598202        4.09265290725033       -3.57787716798606
H            1.10002580429877        3.64804187157936       -2.90509804991405
H            0.63180327481110        1.98025095965280       -1.13594132297022
H            4.02501818622656       -0.82018144837439        0.19959866303386
H            4.16395939239756        0.50495896390005        1.39178687353052
H            2.32651125290143       -2.72490505961709        0.73661996687321
H            1.30486695196938       -3.61183558160973        3.12249751690957
H            4.97427430506289        1.34335894269595        4.73935129594066
H            5.18564609265752       -0.35769087524519        4.11174260627575
H            0.47944524576405        0.53059641863783        4.47306766966239
H            0.22686791595853        2.13733054246006        3.81846935029020
H            0.75155008318612        0.84954795744201        2.75110889126260
H            3.36730958317214        2.57189266477822        5.72827397683383
H            1.65941686407584        2.97173117690493        5.63763618431566
H            2.15624984046282        1.38828036747367        6.22142836583806
H            3.77906784973532        3.01595830217404        3.22643761774168
H            2.56814289667659        2.46258199274649        2.06159661905014
H            2.13771351675472        3.65138351736881        3.28170695125592
H            2.20049714015196       -1.02173355270074        5.76037409493515
H            0.68021297849020       -1.85040334161120        5.34710273463750
H            2.15366914575361       -2.79073449627822        5.62522749107548
