28
 energy: -30.900523220444 gnorm: 0.000499934048 xtb: 6.7.1 (edcfbbe)
C            0.68500422963183        0.16420538893182       -0.04992434768778
C            0.50266156568849       -0.85086895498822       -1.17028336813046
N            1.00418066765824       -2.22354391406977       -0.86538643077342
C            0.41123843592278       -2.69867981261945        0.42665747346929
C           -1.03868791944922       -2.67845302911976        0.42225614171752
C           -2.23513835746652       -2.65839997131046        0.44782958531762
C            0.52590062512369       -3.18037678763403       -1.91669582019128
C            1.00944011260962       -2.95329262508511       -3.33843544561248
C            2.49728721268922       -2.27401139679270       -0.71408955495365
C            3.32342074037541       -1.35267725368782       -1.60170190736228
H           -0.00761690348136       -0.00736497165236        0.76933482848504
H            0.46774657090053        1.15039642839714       -0.45236957342019
H            1.69971088142320        0.18435021924853        0.33688593869948
H           -0.56278868506972       -0.93817624497964       -1.39311067795920
H            1.01445050358337       -0.50392625736479       -2.06608630335318
H            0.75654518167212       -3.72038693662072        0.61215924310994
H            0.76912548722136       -2.06305827340714        1.23996782586325
H           -3.28507270898863       -2.65066903863834        0.47977947187906
H            0.82772784268938       -4.18253582949441       -1.60255597278074
H           -0.56601643100556       -3.14129543543274       -1.89805160038736
H            2.07314525738581       -3.13996009305079       -3.44619120130530
H            0.49206949183194       -3.66833285823220       -3.97406452810934
H            0.77101755135792       -1.96124351404009       -3.70909562706559
H            2.73502913581170       -2.03185762773251        0.32379630896283
H            2.79824635481981       -3.30903739266350       -0.88831511838129
H            3.19145789178359       -0.30583665024312       -1.34566931006948
H            4.36968723340349       -1.59720721013881       -1.43117038549618
H            3.12682803187773       -1.48300995757888       -2.65961964446503
