34
 energy: -40.379873411482 gnorm: 0.000738598752 xtb: 6.7.1 (edcfbbe)
C            2.02707253097270       -0.27752421127346        0.83149115247711
C            1.28696623497855        0.46606567201619        1.93684450918232
C            1.20187833640739        1.97447147671635        1.68673217519781
C            0.39183302475936        2.44913093184918        0.47695488168172
N           -1.10214910581827        2.53367419006053        0.59725307461094
C           -1.52164300231885        3.10222567525451        1.91305576887681
C           -0.87068077410970        4.36536112686471        2.20295712166816
C           -0.34110939874945        5.41126379357082        2.44281863472179
C           -1.60263498538730        3.47396865346277       -0.45959229523276
C           -0.97236998705540        3.32523611899976       -1.75627394742525
C           -0.46482980717591        3.27049742834735       -2.83878020868301
C           -1.75846061208590        1.19845890174157        0.45692516830583
C           -1.46359531430953        0.47943825484634       -0.82600764988849
C           -1.02497525131743       -0.76550998468602       -0.86494703436829
H            1.50730541677718       -0.21437288904955       -0.12189681210561
H            2.12322117844228       -1.32794488822756        1.09142541865716
H            3.02670620839053        0.13051043296904        0.70690673251761
H            0.30106483277653        0.02317710139461        2.08480314313633
H            1.83490926826936        0.32720752910199        2.87050427281487
H            0.87924207039034        2.48595003222684        2.59336489851925
H            2.22083468600221        2.31902190312702        1.49445867024789
H            0.73139883897332        3.45903797967850        0.23810783950731
H            0.60017084623896        1.80773806802952       -0.38074140213599
H           -2.60587047374804        3.25638920076243        1.89360988026165
H           -1.29503483521084        2.38230473370507        2.70360740695981
H            0.11571361903909        6.32868174028764        2.67304515445612
H           -2.68323345212236        3.33639830237356       -0.56593184995893
H           -1.41471799237703        4.49504944552839       -0.10778433258973
H           -0.03160560918302        3.20955188939570       -3.79341631458393
H           -1.44872436161595        0.57619600668530        1.29754514204996
H           -2.84007949645320        1.35675107036678        0.53284789311886
H           -1.68861899376069        1.01134450591768       -1.73816056327472
H           -0.87308676398479       -1.27525328830280       -1.79951772923114
H           -0.81891687565304       -1.33588690372646        0.02564120050494
