36
 energy: -44.860189323268 gnorm: 0.000507532797 xtb: 6.7.1 (edcfbbe)
C            1.01345144870529       -0.17326937401587       -0.09420215537179
C            0.69116237021354        0.04238668813644        1.37921808217698
C            1.19135425572872        1.38374726261303        1.91988172467167
C            0.64391330378526        2.61686169086829        1.19537482436524
C           -0.87978177610969        2.73804844987752        1.18532918942367
C           -1.50179569717936        2.95801424374464        2.57131755099462
N           -1.10543511485487        4.24427813640432        3.11651287585885
C           -0.04567834907991        4.31877167386548        3.95947576002513
C            0.40376350136428        5.51643083122991        4.43036614097267
C           -0.22837475745881        6.71755617328341        4.04421912856926
C           -1.34544989612942        6.61467469365641        3.15872162596780
C           -1.73310809408820        5.34274977509161        2.72841164983993
C           -2.01541832073499        7.78920745329841        2.74591765701773
C           -1.58766653995492        9.00817349897314        3.19380332223036
C           -0.48718700177020        9.10776272822717        4.06501148469343
C            0.18194847331445        7.98791369844272        4.48539227228516
H            0.45956322994731        0.51286166122226       -0.73007474276636
H            0.75042796664548       -1.18596861988054       -0.38702484772101
H            2.07620756971232       -0.03253917536512       -0.27582667397192
H           -0.38550225681187       -0.05302556912222        1.53716679121478
H            1.16978066871064       -0.74709423325551        1.96160578188042
H            0.96002380924702        1.43370822501539        2.98715325884168
H            2.27891622171115        1.40783518671609        1.83004464820549
H            1.08409457320634        3.51408876344124        1.64124784353253
H            0.97944041815799        2.58457127946865        0.15904998663626
H           -1.16661125435661        3.56705285161003        0.53420055136233
H           -1.31332776058490        1.82917133320522        0.77060311993935
H           -2.59019069992246        2.93179156495608        2.48925664885686
H           -1.18449440510227        2.16864915384931        3.25266356828267
H            0.41709747847509        3.38668289424635        4.24167087359587
H            1.24731518209723        5.54695225877240        5.10157550042358
H           -2.57282438429644        5.22808223749438        2.05699867790691
H           -2.85904150192089        7.70650800748889        2.07858314682397
H           -2.09343054879710        9.90807319522435        2.88078193770388
H           -0.17142976157636       10.08307336292634        4.40151287151281
H            1.02521764970654        8.06402799828964        5.15400992401744
