32
 energy: -52.794660237565 gnorm: 0.000297449493 xtb: 6.7.1 (edcfbbe)
F            1.99915761968172       -2.85092178616494       -1.67503792046989
C            3.18135858596537       -2.32973234071896       -1.29577932079621
C            3.17570171167962       -0.79651269652671       -1.36154909164417
O            2.44420917433374       -0.21239745509285       -0.31743250920991
C            1.03313458167932       -0.33331945220400       -0.35885476555025
C            0.45775711179055       -1.34528124168618        0.64629938165498
N            0.66773736911453       -1.04380319297316        2.09624790495996
C            2.09805844520847       -1.20021909285453        2.42753327320554
C            0.20223113914810        0.33428021697382        2.42082876589845
C            0.10047800035862        0.58062224744856        3.93323957805810
O           -0.72129287309271       -0.37165003439476        4.55075332826964
C           -0.21605285922837       -1.66731000293991        4.36942089791610
C           -0.15595785682679       -2.01548632978206        2.87779299065867
F            3.37385798877171       -2.76453032414638       -0.03675736480555
F            4.12038986510951       -2.85898084363978       -2.06234440533303
H            4.20551170537571       -0.45053428784192       -1.24092664247543
H            2.80323342925908       -0.50100037380696       -2.35032963424749
H            0.62744044640245        0.66629520461724       -0.17712427013351
H            0.69733550528606       -0.65034023986347       -1.35166570965395
H           -0.61702760037956       -1.39415289589590        0.45813959957150
H            0.87952882185011       -2.33429716979507        0.45911140339855
H            2.41812277117777       -2.22038400354434        2.22486039785068
H            2.68937942615443       -0.52332982802723        1.81467811273670
H            2.27840651409912       -0.98109312082899        3.47560782254749
H           -0.79102171078449        0.46258145662262        1.98448264429186
H            0.89231248319700        1.05660108810248        1.98609124005276
H           -0.37192230124688        1.55024137827745        4.10090914249978
H            1.09548713492015        0.59713707187245        4.39972138498221
H            0.76615554997167       -1.77573490875514        4.84948462257101
H           -0.91631613333929       -2.34342987103181        4.86317079563214
H            0.24640953818743       -3.01921459471818        2.73860785819385
H           -1.17650358382004       -1.98260257670509        2.48970048937347
