38
 energy: -58.673147253177 gnorm: 0.000334395075 xtb: 6.7.1 (edcfbbe)
C            1.00452240345214        0.05146556674661        0.13232877981999
O            0.22848864939422       -0.45291834185260       -0.93805494783932
C            0.75693503460183       -0.56847397707003       -2.15894181008659
C            2.08184241830156       -0.20837825571010       -2.48828404700653
C            2.58021993116102       -0.34583462144541       -3.76433836984854
C            1.72966421019522       -0.85824999273006       -4.73512254248200
C            0.40605622705973       -1.22246251906361       -4.41415088813965
C           -0.09955787703331       -1.08278264226698       -3.13694266325565
N           -0.16658534371177       -1.68187878978892       -5.58674231669486
C           -1.51717762986229       -2.16209285630398       -5.71394426766851
C           -1.73388784794081       -3.43319860375325       -4.84013526416677
O           -2.19728682078285       -3.29024068969713       -3.73604669167700
C           -1.35387724605165       -4.73527811077248       -5.39595161141446
C           -0.73449349340337       -4.91386685691211       -6.63622000730684
C           -0.41024220626874       -6.18347467534796       -7.07286155053404
C           -0.70245592180499       -7.29143994203278       -6.29052509627247
C           -1.31931422527752       -7.12825381545556       -5.05943355028204
C           -1.63939272916316       -5.86227229606299       -4.61412691202019
C            0.75437606862277       -1.59925067263154       -6.54648606598324
N            1.89876101321707       -1.11331089152127       -6.07982430750630
C            3.10356731282222       -0.87733324591981       -6.82683692013195
H            0.34535540451952        0.03384589140581        0.99779512933372
H            1.32521735172884        1.07929992820308       -0.05633772364787
H            1.87416455137266       -0.58108288211321        0.32832881681210
H            2.72977974637065        0.18828805858033       -1.72439138429760
H            3.59393746625249       -0.06191108094415       -3.99396029288091
H           -1.10252552202637       -1.36670586701667       -2.86657472067751
H           -2.19944037857181       -1.39934761046539       -5.32542747319271
H           -1.74724228170210       -2.35385684021815       -6.76135087473613
H           -0.50370099265830       -4.07292721579965       -7.27166388859191
H            0.06727239478098       -6.31425696690733       -8.03204546473737
H           -0.45150670187527       -8.27956095635780       -6.64386028404766
H           -1.55046115106201       -7.98835544808771       -4.45080412423776
H           -2.12084126959755       -5.71353551771621       -3.65964602409527
H            0.59093015003550       -1.86978281526346       -7.57270652018034
H            2.96563268081129       -1.18803039189145       -7.85989217009894
H            3.35543178212906        0.18398840307757       -6.80317615983679
H            3.92899484196485       -1.44084245889545       -6.38993579039398
