50
 energy: -63.679926389989 gnorm: 0.000269391439 xtb: 6.7.1 (edcfbbe)
C            2.14210869677059        0.45938234889352        0.64944661193639
N            1.56664281286663       -0.47569950470273        1.63079753199828
C            1.54541289626277        0.17869953896931        2.98799803237582
C            0.72357000746605        1.43918578201133        3.06756481471213
C            1.30834233102668        2.67805760899697        2.82163068920108
C            0.55904136671943        3.83797995873994        2.91323899434741
C           -0.78074203545023        3.77430257647866        3.25754656897900
C           -1.36604152403101        2.54776210409830        3.52463479740588
C           -0.61839453973924        1.38703089265761        3.43350302943211
C            0.16984725897088       -0.84202912152205        1.24681757609774
C            0.01463443262881       -1.64661247404581       -0.05060642890728
C           -0.30628197573559       -3.12704656167469        0.18062021360974
C           -1.72825562726693       -3.38810923321821        0.68321928387072
C           -2.78931121358621       -3.09428035557690       -0.37846775743599
O           -2.44236460929441       -3.80844536070409       -1.54019029864008
C           -3.25405113685536       -3.71988367088019       -2.64113487034979
C           -4.41400889327495       -2.96097420805372       -2.71468707067062
C           -5.14734498611014       -2.94346043845496       -3.89121201746256
C           -4.73693029537627       -3.67090500896067       -4.99173425953128
C           -3.57867176767763       -4.42908187191749       -4.91575331466402
C           -2.84006599259083       -4.45463249189749       -3.75111764991623
C            2.41556516691838       -1.67599808624369        1.72304918528583
H            1.53343170300214        1.36007478013667        0.59549724797699
H            2.18271012851349        0.00432258215835       -0.33689478295058
H            3.15341773120484        0.73204791537001        0.94513495996380
H            1.15944853137120       -0.55510989126066        3.69885877036878
H            2.58065762840524        0.40407603808935        3.25332549195560
H            2.35881459210165        2.74385370795142        2.57800590311381
H            1.02582954221475        4.79163764957977        2.72382694668696
H           -1.36332004531534        4.67862217535576        3.33214442507747
H           -2.40391193839288        2.49364068329195        3.81309630848124
H           -1.07999384077825        0.43900319397100        3.66886135910951
H           -0.24715181851850       -1.42418537398318        2.07083169260094
H           -0.38708168027727        0.09386297388124        1.18020118788195
H           -0.79320006980762       -1.20878583852215       -0.63564198978892
H            0.90716586269806       -1.57593937398465       -0.67094403873000
H           -0.20251371002254       -3.65313940444073       -0.76817898250826
H            0.40387104498909       -3.56561920560593        0.88352283117521
H           -1.80176720500495       -4.44317643623860        0.94762161936166
H           -1.95787704514594       -2.79885935113222        1.57299704482166
H           -3.77193384002659       -3.41196912704264       -0.00505057306132
H           -2.83999047626281       -2.01611279038674       -0.59303917971316
H           -4.76239437072610       -2.38677345064495       -1.87001308046575
H           -6.04944150609579       -2.35211247513234       -3.93852002164649
H           -5.31506977936735       -3.65109442629219       -5.90212765691561
H           -3.25011594985988       -5.00404641381893       -5.76799575119028
H           -1.93841531226529       -5.04176556718178       -3.67281996654415
H            2.48137883872030       -2.17262659275242        0.75822225369299
H            3.42020971724844       -1.40012969317674        2.03927031323029
H            2.00092289461333       -2.37259871120694        2.44932400635476
