67
 energy: -78.611480659968 gnorm: 0.000172921376 xtb: 6.7.1 (edcfbbe)
C            1.75312394408652       -0.39780298030255       -0.42369618289287
C            1.08936900534272       -1.74956455648045       -0.65809880010703
C            1.35740406964630       -2.75753408841991        0.46067873294173
C            0.84939835266699       -2.33974927403792        1.84235727514749
C           -0.65031952868393       -2.04781669839851        1.91729155436973
C           -1.55667315603469       -3.21893009227145        1.53385995900428
C           -1.41134237524324       -4.46538664176760        2.40950605273942
C           -1.65849661641480       -4.23719341151580        3.90265225175750
C           -3.00786192770211       -3.60114816851216        4.24160013786544
C           -4.22980170630106       -4.38848322045535        3.76678496684661
C           -4.34878239187701       -5.78518085235484        4.39418262984222
C           -4.25102310411794       -5.75433345844415        5.88643733103159
C           -5.05846222404347       -4.91498028602996        6.64497361445167
C           -4.92726809495338       -4.82712593982199        8.01937976796532
C           -3.98482598785551       -5.60246704133160        8.67736560087234
C           -3.19789217391548       -6.47767709568031        7.93739613636068
C           -3.33025700329482       -6.54582919821754        6.56366461733677
N           -3.76129743628840       -5.50387749325231       10.14092339338918
C           -2.36782095223605       -4.98464583859195       10.38535884036131
C           -2.12219436996268       -3.64720873746229        9.73623347074724
C           -1.68747515125309       -3.56979876367792        8.41718137894576
C           -1.46801246534464       -2.33915938486818        7.82451909754331
C           -1.67177163918192       -1.17347805823410        8.54357913304608
C           -2.08373457526290       -1.24192686913416        9.86373378550105
C           -2.30755921269396       -2.47170599861796       10.45755101027069
C           -4.72321940863023       -4.60529899250790       10.80345620049623
C           -3.91014653970198       -6.84068538851996       10.75246908960015
H            1.32272403239520        0.10850855074730        0.43671361578457
H            1.61891763020550        0.24220539794743       -1.29260763545458
H            2.82020313769938       -0.52220891279091       -0.25270793564221
H            0.01425857947138       -1.61012701156037       -0.78434798254828
H            1.47172320002207       -2.17192206233686       -1.59036302408230
H            0.90917504034353       -3.71409268789109        0.18359029726337
H            2.43634722622393       -2.91638101780655        0.53367950552034
H            1.10129472264949       -3.13119032649429        2.55237356572354
H            1.38571835702440       -1.44402425926284        2.16184609743910
H           -0.88614948628994       -1.72297822138885        2.93376737962365
H           -0.88298844277736       -1.21058588803212        1.25709212669894
H           -2.59273721038619       -2.87410925319600        1.56430828089161
H           -1.34959184107463       -3.50622469396637        0.50188790385934
H           -2.10291860278664       -5.22540057581935        2.03885460266411
H           -0.40434985114734       -4.86989188282031        2.29225886510661
H           -1.56876458491759       -5.19597000076913        4.41967859027338
H           -0.87126597984786       -3.59078079881764        4.29623316062546
H           -3.06794843386953       -3.47238029732596        5.32716415919066
H           -3.05322098665806       -2.60617700357162        3.79718702196598
H           -5.12333296587522       -3.80697080464218        4.00149164989443
H           -4.19626421968917       -4.50311418159812        2.68389907377551
H           -5.31565270171690       -6.20856917330149        4.10913804631725
H           -3.57293267119691       -6.43700007183508        3.99244633710953
H           -5.80084057553418       -4.30317075842783        6.15803131369640
H           -5.57097098446571       -4.13996054290019        8.54013685700804
H           -2.45726762508189       -7.10615446170349        8.40733961097213
H           -2.69751548172327       -7.22424330604843        6.01195001101005
H           -2.22998693795699       -4.91120143028997       11.46631210853778
H           -1.66217186928767       -5.71770494636923        9.99301001490254
H           -1.50630438702961       -4.47070703876450        7.85080715733538
H           -1.12758771822595       -2.29333794477454        6.80206044869458
H           -1.49592160793021       -0.21505240896513        8.08143063675510
H           -2.22516809951460       -0.33840788642774       10.43574260923131
H           -2.60649177585592       -2.51336697659810       11.49536132626528
H           -5.74001559360229       -4.95701598415480       10.63982418183888
H           -4.52701650684890       -4.59783858015482       11.87464005879744
H           -4.61482942109223       -3.59120073691636       10.42420063755689
H           -4.90327845874162       -7.23037022373301       10.53331748865006
H           -3.17207711969003       -7.53588131899037       10.36182577725446
H           -3.78398711596062       -6.77313174939290       11.83186501410314
