15
 energy: -19.684229779316 gnorm: 0.000888108995 xtb: 6.7.1 (edcfbbe)
C            0.96177168441869       -0.09860386512230       -0.03140584782220
C            0.39828167506874       -0.90725041085192       -1.18297964200382
S            0.25733164397646       -0.57883386305249        1.59176119484421
C            1.03558927359610       -2.06770384796879        1.99784506411690
N            1.97443138371273       -2.62445775461756        1.25080149874485
N            0.64387966635745       -2.63870313554942        3.12649068281307
H            0.66281757625370        0.94646131116048       -0.12186975184426
H            2.04874634574939       -0.13211856258040        0.03970923028698
H            0.62117415467338       -1.96864851766042       -1.10187388140256
H           -0.68089975272542       -0.78971686282936       -1.23597909533081
H            0.82183945478093       -0.53863831343043       -2.11446342826629
H            2.42221516662101       -3.48486189737347        1.53112062869378
H            2.30118298154372       -2.18970588850394        0.40206740092667
H           -0.07202681428384       -2.20627979789273        3.69030405156703
H            1.04484556025666       -3.50329859372740        3.46051189467639
