35
 energy: -44.606722061793 gnorm: 0.000176538099 xtb: 6.7.1 (edcfbbe)
C            0.95349965523210       -0.58535610677395       -0.33387583013858
C            0.11154436856379        0.09931144500942        0.69554077419159
O           -1.08270937794920        0.02883432231929        0.74829217077756
C            0.96300150850781        0.98583299395845        1.63286555788764
N            0.37589444576468        1.43476050592568        2.92310347598996
C            0.29302966178149        0.29940140354328        3.91394495441194
C           -0.39937869742098       -0.93940509655607        3.41230576147214
C            0.39352112217483       -1.90577688637151        2.79015703762562
C           -0.15227422839526       -3.06176839965004        2.27197703652082
C           -1.51751588209323       -3.27092647763867        2.37558535375534
C           -2.30089975082578       -2.34451073049293        3.03182946345954
C           -1.76740813748264       -1.17516728918377        3.57036838457154
C           -2.71152220684658       -0.26784099682271        4.30243346955571
C            1.27171001712811        2.45995824109116        3.49876035096864
C           -0.94778293359694        2.04910407727339        2.71003921816388
H            0.32252639917760       -0.92344965572874       -1.15127808146263
H            1.42637183497178       -1.45977202085244        0.10979801528405
H            1.73594802006320        0.06711884476590       -0.71278373463597
H            1.90168433179396        0.46963073033249        1.84093530363703
H            1.19570366044242        1.87882865540294        1.04263435787050
H           -0.20099388520580        0.69006212533605        4.80412773072175
H            1.32037042505899        0.04024844748529        4.18156905317527
H            1.46392886953852       -1.75841348917837        2.73543815990208
H            0.47991177242980       -3.79629295174980        1.79834449069271
H           -1.96326079746865       -4.16303280853591        1.96561181868857
H           -3.35937050281026       -2.52486778177449        3.14067260891727
H           -3.32399358375257        0.29659662998866        3.60023020699256
H           -3.39048794041648       -0.87182316514646        4.90036635103528
H           -2.21441588576370        0.42852186471919        4.97085815341452
H            1.30444824874898        3.33776243441571        2.85525356500374
H            0.90700584316385        2.76529249769973        4.47809347081260
H            2.28231300704892        2.07047215807981        3.61102283317386
H           -0.86882460452743        2.85164394832788        1.97859706956260
H           -1.64333975108704        1.30355259915699        2.33291971208051
H           -1.31927502593425        2.46133993161622        3.64526173590096
