20
 energy: -20.362916947562 gnorm: 0.000496506616 xtb: 6.7.1 (edcfbbe)
C            1.00715197740539        0.02219988812561       -0.11334097783581
C            0.57009766622329       -1.33483051168907       -0.64086487712930
N            1.05959621457293       -2.51896205956998        0.13323966880135
C            0.56830590522867       -2.47677848018902        1.52245145115564
C            0.54158116896497       -3.73765225377186       -0.51842448320569
C            2.53281246371404       -2.57071594531998        0.13651878866350
H            0.63801568934175        0.21729352217392        0.88905576004805
H            0.58311737634941        0.78150662742981       -0.76585880016988
H            2.08554138082268        0.14807403689404       -0.13215750647449
H           -0.52113256237829       -1.37998163144300       -0.64951549548933
H            0.92282396469222       -1.44903012820620       -1.66821099874033
H           -0.51647573860358       -2.38504337797847        1.53578326145912
H            0.84761068704648       -3.39082480442232        2.04390950266078
H            1.00065091501519       -1.63295506880882        2.05503777109600
H            0.89736627178127       -3.79878584721444       -1.54566123199743
H            0.87766453938306       -4.62359295162986        0.01801176065946
H           -0.54718250377803       -3.72970999643765       -0.52655402560975
H            2.91279800779033       -2.54901672248244       -0.88352273111758
H            2.94347320795348       -1.72585872536074        0.68440769154603
H            2.87194336847472       -3.48762557009952        0.61576547167968
