72
 energy: -85.828783754133 gnorm: 0.000414819753 xtb: 6.7.1 (edcfbbe)
C            2.74982853791949       -0.44226565572586        0.76296314860190
C            2.01920483280857       -1.56110636003749        0.03037994609618
C            2.10169119659714       -2.90907914923150        0.74935523384233
C            1.47510029607463       -2.93801749019113        2.14556407943292
C           -0.00294259836238       -2.54810187197754        2.19897430770837
C           -0.92910050696088       -3.41185733960544        1.34090246050629
C           -0.94230654234836       -4.90145861026043        1.69560654945532
C           -1.34989079591484       -5.21872486177119        3.13955578434954
C           -2.76035038680459       -4.77771014375575        3.54099748524621
O           -3.75566507836478       -5.80918844484989        3.50217574433063
C           -3.97861477708140       -6.43510324307576        2.30662666765953
N           -4.64225495087290       -5.53647696838285        1.34372320349531
C           -5.58185355826521       -4.60720262186282        1.67949648881759
C           -5.93526808581107       -3.96032991367292        0.53507895962897
N           -5.21157609942881       -4.51161949743029       -0.47970050484704
C           -4.43318252414392       -5.46006589200743        0.03352694930834
C           -5.26478312487839       -4.14777771381433       -1.90893537588475
O           -4.05528001135035       -4.35606996660184       -2.51464463857348
C           -3.02706065164595       -3.38590565336161       -2.27035955494417
C           -3.24668591464214       -2.02643115026763       -2.94257139778436
C           -3.97695999023205       -0.94931502573331       -2.12750055070323
C           -3.43359810210274       -0.71036336472857       -0.71643475341999
C           -1.93600137747928       -0.40594089366224       -0.65160546298759
C           -1.50490962378838        0.87075285388998       -1.37462466240643
C           -2.10664450519518        2.16200883625695       -0.81609034952270
C           -1.80938131831194        2.42652385546427        0.66133741378710
C           -0.32008414800053        2.53439398454979        0.96708067048303
H            2.27574309586225       -0.21740216797393        1.71500215790192
H            2.74879190902227        0.46470380362371        0.16269296365953
H            3.78301945011958       -0.72354639363062        0.95123925735619
H            0.97480275577881       -1.27873636290969       -0.11700989004865
H            2.46440487129394       -1.68101154156938       -0.96021635512634
H            1.63250183496918       -3.67075119663354        0.12161315134653
H            3.15422517511879       -3.18227307734540        0.85062665160129
H            1.60477933927447       -3.94039402111380        2.55917487208676
H            2.02491570020040       -2.25524476426208        2.79450721833990
H           -0.33574622256744       -2.58114113586699        3.23846630327133
H           -0.10738804253827       -1.51402467699621        1.86729557294199
H           -1.94148468670388       -3.00182831724962        1.41830785516596
H           -0.62858641447177       -3.32093677044126        0.29553541438323
H           -1.60153762615918       -5.41239249168915        0.98608145257335
H            0.05906365422537       -5.30428662131561        1.54079523019232
H           -1.26004271790714       -6.29259054538920        3.31852522549181
H           -0.64056327223764       -4.73114754471693        3.80653348000782
H           -2.77751502004968       -4.47497422902085        4.58838684296010
H           -3.09147206874274       -3.92653662851660        2.93406540335404
H           -3.06923169375652       -6.81515619962515        1.82236133890113
H           -4.65752356263534       -7.27074207656753        2.51808060053868
H           -5.91022688953625       -4.47971044888407        2.69161294042506
H           -6.63581698843633       -3.16574252813277        0.37850151582833
H           -3.75414357547126       -6.06067717209850       -0.54082916487828
H           -5.98828428837958       -4.80985350062527       -2.40127479891835
H           -5.61918414957290       -3.11154169245936       -1.96241657769595
H           -2.86943416959900       -3.27561739854194       -1.19216581003049
H           -2.14451439381250       -3.86142838242839       -2.70140920356261
H           -2.26348818948371       -1.63820521303149       -3.20824516868899
H           -3.78567580584160       -2.19501259230794       -3.87693484818370
H           -3.90189568694487       -0.01871513983966       -2.69123555191954
H           -5.04501979138721       -1.17318200660659       -2.05216060280996
H           -3.98613515443460        0.12269883667271       -0.27966880885418
H           -3.63760959989190       -1.58368011783714       -0.08598359745363
H           -1.65451501426690       -0.32844640808443        0.39983526694333
H           -1.37916036250720       -1.24562086210804       -1.07371990633307
H           -0.41701373881962        0.93588659953340       -1.32116750489109
H           -1.76630653491013        0.79815394616781       -2.43213305520976
H           -1.71116982757538        2.99404183880545       -1.40257441016531
H           -3.18947355175917        2.15432348843195       -0.96010288568391
H           -2.29336810963500        3.36580160942832        0.93771046866173
H           -2.25353931305521        1.64308731781051        1.27964116434526
H            0.14289903560898        3.28900463676196        0.33571898147376
H           -0.16968436044918        2.82038573174650        2.00541155110810
H            0.18831381069808        1.58801471870610        0.80099741785645
