34
 energy: -47.637889243686 gnorm: 0.000982843297 xtb: 6.7.1 (edcfbbe)
O            1.52366104173472        0.32784102367071        1.23884619485564
C            2.63617836821475        0.30141356222248        0.75194093053620
C            3.34665496602783        1.49834771421312        0.30661985055289
C            4.56420364405442        1.47556637623635       -0.38505785596992
C            5.16626124790952        2.66047845260385       -0.75777686184813
C            4.57597879127902        3.87882254244201       -0.44886921688819
C            3.36712282221955        3.91350928563323        0.22976919803686
C            2.75506446749492        2.73461221482061        0.60140522176523
C            3.38553284610498       -1.02978962321493        0.57976763633237
N            2.69606602798831       -2.22075012975386        1.15206591709383
C            1.34713089286996       -2.41592764358685        0.55049423109128
C            1.31297124880553       -2.56357919521547       -0.97358120891010
O            2.30909263192863       -2.52070379426020       -1.64691633910730
C           -0.06560758309089       -2.72433625107007       -1.51732955252324
C            3.53089544786865       -3.41303491648697        0.89687215494630
C            2.54175956293454       -2.05417442698344        2.61216597123960
H            5.04033090883018        0.54487258800934       -0.65137089864011
H            6.10207845459860        2.63757890227350       -1.29416370371011
H            5.05852498162510        4.79857583680088       -0.74125004120351
H            2.90493922120269        4.85878522035948        0.46685333294055
H            1.81497953318216        2.74160343919134        1.13199452115855
H            3.52807564344857       -1.20469687299499       -0.49077082322805
H            4.36444599420519       -0.94214436959163        1.05479484546013
H            0.89579584201152       -3.30488160249733        0.99612911760550
H            0.73082248163497       -1.54952515525044        0.81447042807817
H           -0.70277385118923       -3.31190647696013       -0.86320128714186
H           -0.51194348042737       -1.73514905492376       -1.62231965994591
H           -0.02149449985109       -3.17233606375629       -2.50671456409278
H            4.50322143353509       -3.29811505230179        1.37169665418744
H            3.04730843987217       -4.29903925412255        1.30400076923244
H            3.67431492305765       -3.54857852815720       -0.17363416420149
H            3.51626374994194       -1.90581000778674        3.07401959141931
H            1.91363975186429       -1.19108845801886        2.82574514644340
H            2.08222404811064       -2.94137028154250        3.04337446443060
