45
 energy: -51.059009552451 gnorm: 0.000281929247 xtb: 6.7.1 (edcfbbe)
C            1.20500762911461        0.00483860462723       -1.60415653513460
C            0.31565225198080       -1.19126355029589       -1.27547258436388
C            1.01287402683714       -2.28400186237094       -0.44557380232617
N            0.63948130549927       -2.40935911936366        0.99448326602181
C           -0.84289097861849       -2.69507896197700        1.13324622195312
C           -1.34719549450141       -3.93362994700055        0.43663071869093
C           -1.74453138687542       -3.90757877035624       -0.89648578854696
C           -2.22795945662734       -5.05093696846329       -1.50871040180068
C           -2.33326936719569       -6.23298876449397       -0.79550860943632
C           -1.97339928102930       -6.26223710418220        0.54120733055305
C           -1.48807769580350       -5.12053290980417        1.15390762233243
C            1.35212510905586       -3.58278168998748        1.59982014486827
C            2.79312937846928       -3.87761851855708        1.17926994342697
C            3.33204164739118       -5.00875601823216        2.05312259397111
C            0.88503907957039       -1.13997484847623        1.76128448887279
C            2.28642590805910       -0.83325611395023        2.30248819186680
C            3.29727946801466       -0.25814965791225        1.31662778437751
H            1.44407734850224        0.59520185368256       -0.72497237022345
H            0.69074386683006        0.65363157897654       -2.30805843859867
H            2.13297424226912       -0.31968684731760       -2.06755490175033
H           -0.59399857460161       -0.83134848434450       -0.79568711527107
H            0.01584664408044       -1.64268386655200       -2.22233270571005
H            0.80717037104341       -3.25992249010380       -0.88966905728860
H            2.08603474387693       -2.10868373943605       -0.48808153400521
H           -1.04302861527757       -2.79965124850799        2.20196094167191
H           -1.38680075047334       -1.82282366951708        0.77022809818448
H           -1.70229120769160       -2.98780185715276       -1.45799330239309
H           -2.53255560090688       -5.01336660949794       -2.54280776040084
H           -2.71189086128626       -7.12223269521269       -1.27371024721810
H           -2.07845670545748       -7.17108993185186        1.11248723370062
H           -1.24298425975593       -5.15050842191235        2.20660560598558
H            1.30903767618983       -3.45557437778145        2.68368975953791
H            0.77120012100699       -4.47072053184836        1.34323618796623
H            2.82648960599996       -4.20248113251331        0.13904985733399
H            3.44502261123731       -3.01454576625717        1.28970420711387
H            2.71600801399582       -5.89931103029183        1.95882911006729
H            4.34246353509676       -5.26169302298797        1.74718594332471
H            3.35841632663660       -4.71649755247468        3.09999485347009
H            0.55936009863635       -0.31237736392737        1.13158571145395
H            0.22387380585548       -1.17614710605567        2.62995084180993
H            2.12879669187779       -0.07616205446073        3.07466935469102
H            2.70560528459078       -1.70026919181926        2.80970000340528
H            2.93993940751819        0.68009762748273        0.90160988309448
H            4.22427770882530       -0.04935877618207        1.84436461513788
H            3.53096632805503       -0.93158709135773        0.49703463959347
