39
 energy: -55.231591250658 gnorm: 0.000630032303 xtb: 6.7.1 (edcfbbe)
N            4.36069825732312        1.46095981674736       -0.19091161672349
C            4.56149462890833        0.44225406156761       -0.66999290200659
C            4.76552122711208       -0.80527146046394       -1.35507270538059
C            3.51910519708740       -1.21608822895591       -2.16047569868376
C            2.77070566371930       -0.03056646541413       -2.78435207585346
N            3.62207166668899        0.84042052329143       -3.57291989686741
C            4.46505149065647        0.39377747196290       -4.49397045108993
N            5.14391853005673        1.38712256418175       -5.05762990058204
C            4.73038442195310        2.56259667784479       -4.46167208731550
C            3.73798176428763        2.22317928310891       -3.51557679025239
C            3.09051410259260        3.22114002038791       -2.77062265253099
C            2.00386911073171        2.98224811517777       -1.77528400269843
C            3.52668071783305        4.51635840920477       -3.00618096544028
C            4.52354240143310        4.84157341687116       -3.92314793672217
C            5.14212861091634        3.87004469586628       -4.67899134566042
C            6.23093933941972        1.26809758511544       -6.01755321251755
C            7.56752202952112        1.19022552584775       -5.24141474696139
C            7.45471433313807        0.17469247471040       -4.22880840407424
N            7.23905012692274       -0.61732760641590       -3.43339302890234
C            6.04567176287395        0.05934546146807       -6.92644340116896
H            5.64047263032378       -0.69321551260227       -2.00441212223752
H            5.00284448313316       -1.57735151088641       -0.62020228441661
H            3.81544459436076       -1.93935545811304       -2.92082466612180
H            2.80691768092586       -1.71297800498362       -1.49961492026986
H            1.96458572776233       -0.40867850049102       -3.42215874754023
H            2.33227005973429        0.56844407180355       -1.98975611821680
H            4.57465515160548       -0.64075362069814       -4.75339508923531
H            1.19550613080547        2.38622349147356       -2.19446814220167
H            2.40774446729475        2.48493007508577       -0.89266773730475
H            1.58840293521531        3.93278086707377       -1.45324628206777
H            3.06564447194218        5.31689701448169       -2.44939985305127
H            4.80780114858681        5.87406292983209       -4.04654082269138
H            5.90107094176893        4.11988764322702       -5.40156144891299
H            6.22171440658246        2.18140929326339       -6.62068427818318
H            8.38271226975493        0.94552722949821       -5.92478596947812
H            7.79399425466869        2.14209221170426       -4.75301081538211
H            5.04393275898808        0.04614823896921       -7.34959186268379
H            6.75419016365457        0.11497018902416       -7.74861923935681
H            6.22404033972292       -0.87243298978035       -6.39441577920809
