25
 energy: -30.185833545654 gnorm: 0.000675656395 xtb: 6.7.1 (edcfbbe)
C            1.14166269244103        0.09547968817899       -0.00467792812341
N            0.00358495359557        0.14884612889227       -0.03044426572353
C            2.59274023234535        0.03530673340341        0.01461678871584
N            3.19278088993335        0.72342651446794       -1.16036073847444
C            2.78102522248918        2.16010165055455       -1.14174444693790
C            3.46675514607653        2.99378138683682       -2.21723322571024
C            4.98287497984943        2.89514531835141       -2.08370265388882
C            5.40849292438832        1.43107188164499       -2.12370002404138
C            4.67832563807572        0.63229365817528       -1.04994329858306
C            2.71385176160194        0.05197651269978       -2.38370828654316
H            2.94304359062540        0.50079695312130        0.94218228128440
H            2.89540997130722       -1.01767916402027        0.02008354841004
H            3.04451753762331        2.56512581721050       -0.16125692276503
H            1.69572069849366        2.20702675704118       -1.25368250342615
H            3.14593575220665        4.02747838446098       -2.08674002929257
H            3.15149381985240        2.68669669534913       -3.21451672336251
H            5.46397002119321        3.44405803904297       -2.89107932955228
H            5.30083487086177        3.34666191596526       -1.14232224411922
H            5.23240814506074        1.01129178292437       -3.11418738506255
H            6.47755109220323        1.34673464976796       -1.92720442687525
H            4.96381488620773       -0.42061456574603       -1.09998814617963
H            4.96172614720946        1.02248545296631       -0.06922167694508
H            3.01756451883518       -0.99412087594398       -2.37893989882089
H            1.62671874305042        0.10203865398683       -2.43386310641786
H            3.12525576447317        0.52791003066818       -3.26877535756544
