29
 energy: -35.593363612720 gnorm: 0.000425452252 xtb: 6.7.1 (edcfbbe)
C            0.94259205101432        0.47101855444547        0.33465427907290
C           -0.45491617898436        1.02612831586726        0.03095936507426
C           -1.34648282877180       -0.21285364704778        0.06194747272554
C           -0.48906204379078       -1.31520357146890       -0.57504897210661
C            0.97614825799952       -0.85588179781669       -0.43104578184716
N            1.09854852229267        0.28660126643695        1.77232696863645
C            1.51107887378683        1.21688292538255        2.64214943759123
N            1.45938664307573        0.69627443944834        3.87586673992022
C            0.99928658026187       -0.58410263882354        3.78787949146672
C            0.76975147295334       -0.83839349384865        2.47410346372218
C            1.82489785044258        1.38077487319905        5.08643906138608
C            1.94593671460111        2.60019668849049        2.36311524159149
H            1.73996481878426        1.14000226338275        0.00570533622486
H           -0.76691956745638        1.79368172410632        0.73802134090239
H           -0.44715406958866        1.45818004785357       -0.96880339129581
H           -2.27555726709296       -0.05559876224661       -0.47945388725128
H           -1.60287060506741       -0.46407880358208        1.09253491583642
H           -0.74037698586577       -1.42399368973265       -1.62788249640637
H           -0.66526749197846       -2.27975033116957       -0.10223748502044
H            1.40788162933175       -0.67148446045924       -1.41352002125090
H            1.60827257993724       -1.59259315974266        0.06175158691740
H            0.86858725916411       -1.21134389435765        4.64517940110806
H            0.40231351036416       -1.72822075757970        2.00963545466389
H            2.87596854834824        1.67123475999181        5.06004986636295
H            1.21850598990742        2.27829520993895        5.21507965154948
H            1.66309993753041        0.72040553491369        5.93481037219305
H            1.96654052904604        2.80900107215032        1.29869862853379
H            1.26674739662430        3.31047933668634        2.83630180292718
H            2.94034787313161        2.77548199558224        2.77384215677023
