77
 energy: -80.089106151058 gnorm: 0.000370882297 xtb: 6.7.1 (edcfbbe)
C            0.31366028752722       -1.00098356337471        0.57353611466063
C           -0.79921405672005       -0.47535848764448       -0.33351810179212
C           -0.85828129977854       -1.24910279743618       -1.65635651176202
C           -1.09975941267410       -2.75475906735983       -1.52405903730327
C           -2.38719435735374       -3.10242221242491       -0.77932114231391
C           -2.69863858822024       -4.60054038979511       -0.78428429091239
C           -1.64005164214109       -5.48537850527598       -0.12032512298566
C           -1.28109348030644       -5.10588133137403        1.31767293302173
C           -2.45394351315136       -5.09576598154418        2.29998292710218
C           -3.16709697190803       -6.43956629493665        2.46014228315016
C           -2.28229665624482       -7.58391738570226        2.95662832559851
C           -1.67626679241363       -7.32599048864451        4.33159609410735
P            0.50472216003459       -0.23605633678282        2.22224172772095
C            1.35924375804830        1.38515699888127        2.15849228468097
C            0.93216921932986        2.37594211086004        1.07555337493810
C           -0.50929483998102        2.86774825187364        1.19615562319034
C           -0.76317814327303        3.69174000707972        2.45298884466146
C           -1.03570905611827       -0.12041481611661        3.20607662676815
C           -2.01105460463077       -1.28757053347921        3.01445237039301
C           -2.94878898799087       -1.44367335510064        4.21375890397690
C           -3.86194936618856       -0.24037425615095        4.41622328744923
C            1.70217830811756       -1.27941341864979        3.13006685669684
C            1.17926843571626       -2.62965617426674        3.62196160328658
C            2.27236867811446       -3.43642853304302        4.32960640676110
C            3.37529888535897       -3.91304754876679        3.39191975322616
H            1.28603527520517       -0.89485585098334        0.07930824317969
H            0.15432879919056       -2.06635969047081        0.76369728755537
H           -1.76177440814911       -0.55195251222696        0.17109291097687
H           -0.63067062661917        0.57528124264157       -0.56874436484831
H           -1.66155730325695       -0.81610048929914       -2.25489718352690
H            0.07588781726213       -1.09210684119244       -2.20044310634725
H           -1.15878289869960       -3.17026993638527       -2.53152014807832
H           -0.24555365166126       -3.22762009607727       -1.03729257391074
H           -2.33159621439290       -2.75744754305510        0.25425620994759
H           -3.21925359876565       -2.57885415690233       -1.25599870128089
H           -3.65751887003780       -4.75277472376032       -0.28602821523490
H           -2.81556523885799       -4.93293652569037       -1.81771156024019
H           -2.00241474014347       -6.51366868409166       -0.13531001057974
H           -0.72578205969772       -5.46478613835247       -0.71795977032815
H           -0.52111517548259       -5.80335005938834        1.67508658196367
H           -0.82374309106730       -4.11065788811289        1.31956443161535
H           -2.08244556036670       -4.77485260884382        3.27689020258410
H           -3.18977700045519       -4.35622911495876        1.97586499443209
H           -3.98694410225899       -6.30142614474336        3.16954120306762
H           -3.61100128453336       -6.72840625105697        1.50612322820323
H           -2.89781309112036       -8.48418776934496        3.00866965626942
H           -1.48532060843748       -7.78005264156523        2.23721293510978
H           -2.45379351464123       -7.07020557908768        5.04822687220127
H           -1.16379214922852       -8.21589834035558        4.68834418558879
H           -0.95406703022746       -6.51298118525769        4.29997336295657
H            1.25011029433895        1.83270702916018        3.15054638010796
H            2.41918812968755        1.14465983565313        2.02076013202104
H            1.60076055255149        3.23729253793154        1.13841148029166
H            1.08321173204159        1.92408543057139        0.09328267117018
H           -0.72552779687114        3.49007584860822        0.32620063380758
H           -1.19236983527990        2.01439669576238        1.16246396202680
H           -0.08692099546816        4.54188840324013        2.49032329358883
H           -1.78097086941904        4.07234852628739        2.44907017903125
H           -0.62751099146187        3.10664365228598        3.36036083705365
H           -0.70065928296247       -0.07920264675820        4.24927701708151
H           -1.52767053833993        0.82626207650153        2.98130665769690
H           -2.61539346549037       -1.11887580532394        2.12206847609565
H           -1.46510290500029       -2.22196949957374        2.87663851034221
H           -3.56173423197492       -2.33132902141814        4.04981518385196
H           -2.36102921179223       -1.61407881649825        5.11871997574811
H           -4.42960798591659       -0.03327595288680        3.51180997718736
H           -4.56699644281350       -0.44281599497798        5.21730038528781
H           -3.29839876929858        0.64976503481960        4.68557867502529
H            2.55077186381859       -1.43086742912884        2.45601075951654
H            2.05470957308529       -0.69009144886040        3.98346988902470
H            0.35913395633569       -2.47055076131468        4.32423626809807
H            0.80351881894595       -3.22032995920989        2.78389910360576
H            2.70578603603541       -2.83733966821118        5.13265226423462
H            1.80212172274222       -4.30803458124669        4.78733290871587
H            3.96235259051509       -3.08434525062881        3.00336609330859
H            4.05224479850023       -4.57286011390467        3.92669205782554
H            2.95539561706423       -4.46685448319932        2.55505742265246
