45
 energy: -65.720429468082 gnorm: 0.000927093348 xtb: 6.7.1 (edcfbbe)
C            2.48763929510021        0.14675078536389       -0.05184312950407
C            0.99523797680085        0.11600868744940       -0.04613365130154
C            0.31596665444485       -1.09914250473410        0.00942820296892
C           -1.06380123170919       -1.14712824855496        0.00682039490241
C           -1.78646743218001        0.03839650486613       -0.04703090543456
C           -1.12982137062785        1.26048568795826       -0.10975446868156
C            0.25290346694355        1.29005047158909       -0.10940162136319
N           -3.20826404150548        0.00446431296118       -0.03798651489813
C           -4.01786311830219        0.55864121611143       -1.00460919484617
N           -3.52965937142924        1.29337783702774       -2.03463326820814
C           -5.30840430457251        0.26162883845876       -0.65015709257687
N           -5.26019705858003       -0.45537224756500        0.51961248432996
C           -3.98452071537001       -0.61334460087627        0.88384132632800
C           -3.49765119408182       -1.34866264851020        2.04162756561943
C           -2.47563920421778       -0.82462191294508        2.83424807650793
C           -2.01588504335660       -1.53669673375025        3.92568579032177
C           -2.56327720032118       -2.77148082170541        4.23518580715415
C           -3.57829662094450       -3.29601743038232        3.45064001313212
C           -4.04786800254797       -2.59209721486076        2.35867156126642
C           -6.41088998955069       -0.87382335034617        1.23663735537345
C           -6.50961564713331       -0.62246926932597        2.59934768062870
C           -7.64518009983386       -1.02192865949981        3.28036014165157
C           -8.67504295011637       -1.66015419830467        2.60773337103591
C           -8.57349390986605       -1.89955999354752        1.24725325048818
C           -7.44179120594844       -1.50646384087230        0.55461428859651
H            2.88929675051933       -0.54153012661175        0.68835084319055
H            2.86119030004058       -0.16452419850518       -1.02718988487371
H            2.86099991597238        1.14604012921746        0.15285118779358
H            0.87765492215878       -2.01939258548438        0.05411784506790
H           -1.58025488187438       -2.09393963676789        0.04791706129169
H           -1.69730588677442        2.17853517047924       -0.13814519808514
H            0.75973831982707        2.24178037976507       -0.15220509603448
H           -2.56286285118237        1.16009486069656       -2.28443905517716
H           -4.15951389107835        1.48455956922712       -2.79521094914102
H           -6.23203842069548        0.53491259379800       -1.11303700935148
H           -2.05846397776398        0.14437186988048        2.60644345231776
H           -1.22922497758147       -1.12413754719138        4.53752522398097
H           -2.20005202961263       -3.32439094946297        5.08708198243677
H           -4.00425291084645       -4.25822077455829        3.68754606599525
H           -4.82750303724454       -3.01027549011611        1.74001862492264
H           -5.71082802104608       -0.11236012700216        3.11508658478607
H           -7.72670877927344       -0.82709980489668        4.33789973682084
H           -9.55896356711058       -1.96732122532186        3.14371232723404
H           -9.37491541629771       -2.39379268979905        0.72142781410393
H           -7.35090924122965       -1.70067008335281       -0.50330902077118
