56
 energy: -66.728186782639 gnorm: 0.000425906268 xtb: 6.7.1 (edcfbbe)
C            2.34162041595141       -0.65268857316172       -0.31878508143936
C           -0.72168694789378        1.72640773809796       -0.98829369913131
C           -1.15951585571305        2.08780640197801       -2.17879220823474
C           -1.05696967894116        2.48572784231747        0.28169294132621
N            0.29422549698801        2.80433715198539        0.87737643492838
C            1.20241855071650        2.03898699966507       -0.01029984042787
C            2.27336025789487        2.52479553969297       -0.64464082215408
C            2.83563646593961        1.89734560139032       -1.81484424551150
C            2.25735548986814        0.74789208889432       -2.26778853158409
C            1.34492888726495       -0.07024695142598       -1.35720295825007
C            0.43256056719112        0.85938889655281       -0.53039436352366
C            0.56628720909050       -1.26060656270254       -2.03372003973734
C           -0.46837249304874       -1.85085679035372       -1.06215052760113
C           -0.21272889609650       -0.85524709357320       -3.29260414591819
C            1.52303052214813       -2.40196132673646       -2.41568126502149
O            2.52051768759275        0.15718462481745       -3.43238240508564
C            4.00347993750301        2.68095170788771       -2.43284131085068
C            3.52768777953499        4.08734283125098       -2.83284364730002
C            5.11569472120810        2.77548461776099       -1.37334015278731
C            4.65519236368265        2.05999821193674       -3.67802919569928
C            0.53455224688307        4.25389665587810        0.84340420953837
C            0.41641413659137        2.32811072055581        2.26626367975362
H            1.84610614157172       -1.34427325796938        0.35604119779610
H            2.78687346589157        0.14281805352821        0.27243492668546
H            3.14473505139835       -1.17904445088848       -0.82306656427828
H           -1.90690493517444        2.85768871070187       -2.28020851988490
H           -0.82936526884159        1.62566022639640       -3.08715442029056
H           -1.61223478207470        3.40155835288763        0.08847553002489
H           -1.63038299091017        1.86843342381923        0.97588187291364
H            2.72360201096832        3.44775160502122       -0.32178722256468
H            0.07273664596590        0.24212434777602        0.29794767116579
H           -1.27315012701128       -1.14943831782869       -0.85357224277327
H           -0.91504599202519       -2.72628168620083       -1.52640837029223
H           -0.02300352399743       -2.17496100367467       -0.12490434312700
H            0.37008327493482       -0.22188851721821       -3.95105106867048
H           -0.47293517167140       -1.75090150048501       -3.85061924180592
H           -1.14341028579355       -0.36296541560870       -3.03035394054748
H            2.32931356479553       -2.05028046072156       -3.04918107883115
H            1.94033472446567       -2.88913298695377       -1.53992298845330
H            0.97051754888486       -3.15622476465614       -2.96977236564556
H            3.16266626514295        0.65677098334241       -3.95409733776377
H            3.22647012433613        4.68196316868749       -1.97514615310650
H            4.33214120791725        4.61958650135634       -3.33363556109428
H            2.68342085453581        4.02230225540193       -3.51659664666629
H            5.46419324201622        1.77987058053949       -1.10754309600704
H            5.95691489720756        3.33723274316560       -1.77060786809522
H            4.78987898684854        3.27288423826531       -0.46485584932411
H            4.99631093013937        1.04166889964340       -3.49816720746292
H            4.01099950966049        2.12032554175024       -4.55590645190644
H            5.54275069778288        2.64269543868083       -3.92013096036089
H           -0.22242778262274        4.76511547685756        1.43645681606474
H            1.51234885030042        4.48501402443376        1.26155270631090
H            0.49010727056233        4.60792505400126       -0.18512589344716
H           -0.31802804558220        2.82161286171344        2.90125901214083
H            0.26237659436983        1.25182319990771        2.30908246763775
H            1.41584818168098        2.54776634163417        2.63893036639275
