40
 energy: -65.809259620200 gnorm: 0.000524125695 xtb: 6.7.1 (edcfbbe)
Cl          -2.29688217155674        1.02203649448700       -0.42783660435838
C           -0.86836836924874        0.08140763624022       -0.28986034206369
C           -0.78553686952650       -1.16017337802729       -0.91015353253302
C            0.37121387056646       -1.90506689486878       -0.78725275355916
C            1.46018721517350       -1.44033914907593       -0.05831106137961
C            1.36087878538086       -0.18868377180417        0.54790550459849
C            0.20615172800400        0.56840690594530        0.44376401790006
Cl           2.67718230353161        0.45051203905716        1.46688927088433
C            2.70775421020245       -2.28013259035547        0.07194560363947
N            3.66606975876207       -1.96855518083031       -0.97172451454606
C            4.61797660701571       -1.00151252209017       -0.91711899156424
C            5.30258364252474       -1.02183362936795       -2.09515571247308
N            4.73335761338417       -1.99704601174767       -2.85236498217375
C            3.74287489547431       -2.55727793412959       -2.16273827842697
O            5.11371932869638       -2.45354320904003       -4.07084887656568
C            5.39580470027882       -1.46232739363437       -5.06876082120966
C            4.15592314550102       -0.67921546371511       -5.50426168445313
C            3.64746947354147        0.23205781077344       -4.41722388346131
C            4.38756128164199        1.34596158537666       -4.03478739123670
C            3.95056013635984        2.16238087403736       -3.00708802584204
C            2.76085873435404        1.88136984772824       -2.35579979385621
C            2.00497951273593        0.78940926609759       -2.74571673842272
C            2.45026193251962       -0.03401003824028       -3.76564306010499
H           -1.62275819501200       -1.53614982148505       -1.47424159473139
H            0.42321328214106       -2.87591140955973       -1.25598724505548
H            0.13776164655088        1.52915715056680        0.92841749433878
H            3.18306013281061       -2.08547335403103        1.03549128900056
H            2.45118234089780       -3.33838575285759       -0.00078351444140
H            4.74543106430951       -0.37115744488212       -0.06043165957317
H            6.12796196593741       -0.42303230010772       -2.41872332392995
H            3.14392558666505       -3.37280187910271       -2.51711160080016
H            6.18954279384824       -0.79207469503036       -4.72666505817532
H            5.77690074667865       -2.07242553724796       -5.88907933811234
H            4.43500407701567       -0.09016495814497       -6.37914190465916
H            3.37684563684244       -1.38194263280171       -5.80319474991588
H            5.30239230821672        1.58466942252818       -4.55794356576552
H            4.53169471100150        3.02639738884172       -2.72467619077878
H            2.41316490353046        2.52321403077461       -1.56189800182520
H            1.06029067227197        0.58414853876416       -2.26747727684919
H            1.84980486096991       -0.88008203903057       -4.07035110752643
