30
 energy: -35.255856116816 gnorm: 0.000609334520 xtb: 6.7.1 (edcfbbe)
C            1.09889119906657        0.22559172758356        0.00171090405101
C            0.43680962042689        0.93820694581284       -1.17144246759788
C            0.89298482382642        0.41257468954569       -2.53460375618561
C            0.63342199029759       -1.07835932459335       -2.77015559453649
C           -0.83075978565078       -1.50346958057701       -2.66809572341357
C           -1.73504292822180       -0.90451871086105       -3.75639368053970
N           -1.38028189448982       -1.43404203921519       -5.05975846333349
C           -0.50554512698782       -0.78303061971963       -5.83310387929791
C           -0.09185986814419       -1.30594042528698       -7.04219500317949
C           -0.59359971650407       -2.53109657595239       -7.45912195589343
C           -1.49966897853011       -3.19391690156530       -6.63955410813493
C           -1.87061365786574       -2.61903040053324       -5.44270982196025
H            0.76193367522879       -0.80491449787198        0.08811284859497
H            0.85484568201911        0.73497965683661        0.92990608923927
H            2.18014562632070        0.22863577649689       -0.11288688149848
H           -0.64921317646617        0.86569181508472       -1.07963651577746
H            0.69030213863863        1.99885675357719       -1.12554277754794
H            0.41561698977753        1.01378316613750       -3.31368158904414
H            1.96870692375038        0.57534729615491       -2.62348957958773
H            1.03623411123439       -1.36022570924563       -3.74838395639212
H            1.19349991674687       -1.64573533121536       -2.02728386551593
H           -0.89241759642734       -2.59300976701929       -2.71537544822411
H           -1.23085098471318       -1.19310135674084       -1.70401578962802
H           -2.77593489501908       -1.15633018409975       -3.54527944486996
H           -1.63215095502449        0.18073685916830       -3.76790137234042
H           -0.14481693595609        0.17146270534528       -5.48016104325071
H            0.61223004534722       -0.75721272828311       -7.64652752382322
H           -0.28786769170968       -2.95967631752438       -8.40040279708466
H           -1.91541219454918       -4.14663964396526       -6.92580405193523
H           -2.57143635642172       -3.10167727747447       -4.77688275129210
