101
 energy: -105.782169186942 gnorm: 0.000530967283 xtb: 6.7.1 (edcfbbe)
C            2.46053819052576       -0.33894783191985       -2.31798515053434
C            1.87584281675326        0.88601587385517       -3.01153322130676
C            1.79090730905433        0.74127937414169       -4.53199794511766
C            0.83961556579868       -0.35116504558547       -5.02528817656312
C           -0.61567318396732       -0.08800989660888       -4.63783686159990
C           -1.61787828223248       -0.92946924550936       -5.43067728921822
C           -1.45693475932210       -2.44883466533561       -5.30193370101802
C           -1.75594142380219       -3.16201029085626       -3.97487594495764
N           -3.16975503150509       -3.17992607247056       -3.46738042536230
C           -4.16585440582742       -3.22356345947094       -4.58789420118051
C           -4.19762315270374       -4.47057655790640       -5.46892391518137
C           -5.13267442535752       -4.24026117672728       -6.66524823730317
C           -4.54545229921076       -3.38569011380469       -7.79023794032932
C           -3.39843716721399       -4.03926324142261       -8.56579354691358
C           -3.74799826346630       -5.36114106770232       -9.25391311285773
C           -4.92404593104126       -5.29420252499664      -10.22904484358857
C           -4.69250000045411       -4.32956523033312      -11.38583467709373
C           -3.40237428749553       -4.36017464232311       -2.56367159906496
C           -2.72217184328541       -5.69792882306985       -2.87364185967539
C           -3.38219095358304       -6.80907271836922       -2.04398593988680
C           -4.73229225513886       -7.26095263554990       -2.59851283034657
C           -5.31802182213574       -8.44769996651702       -1.83063606751144
C           -5.64278531144952       -8.17256117940841       -0.36053215310496
C           -6.61980017262831       -7.02128674322915       -0.11410299824467
C           -7.98336218240060       -7.23969732665190       -0.75899296870816
C           -3.43019031367745       -1.88081283081951       -2.72018215193465
C           -3.40921639277085       -1.84836783345779       -1.18701517841546
C           -2.07328900820118       -2.05695212178644       -0.46188734556514
C           -1.01348351612020       -0.98175032943365       -0.71023837915226
C           -1.44346893272708        0.45318962090693       -0.40286390211702
C           -1.89807572751978        0.69292728343505        1.03813613599460
C           -0.84861643743998        0.36955128530035        2.10324970282189
C            0.42352137332539        1.19761704003955        1.96593379275001
H            1.82692736832242       -1.21371861740271       -2.44714567560308
H            2.56555460974564       -0.15363755053460       -1.25167189272784
H            3.44402435491133       -0.56785508831608       -2.72086231542555
H            0.88723545042949        1.10630841717151       -2.60394979607354
H            2.51279921732801        1.74469228741000       -2.79168570011251
H            1.47455900643681        1.69705297867309       -4.95566885984173
H            2.78953769040253        0.52623779147212       -4.91735568509578
H            0.91116675684196       -0.39411850285982       -6.11451360145387
H            1.16870787730073       -1.31527299664968       -4.63427357343644
H           -0.74178352261880       -0.24888531644223       -3.56702124276248
H           -0.84163063802541        0.96270047885584       -4.83125389822261
H           -2.63323692485655       -0.61307316933645       -5.17864236338737
H           -1.47685497668334       -0.69790327825587       -6.48911926427453
H           -2.03227810893745       -2.91414513933015       -6.10056870642842
H           -0.41021678197406       -2.68048595737500       -5.50951552643701
H           -1.45416294634087       -4.19586966304063       -4.13081332170046
H           -1.13566961297685       -2.75252643732359       -3.17727065980259
H           -5.15666084304817       -3.12200406947195       -4.13742575302745
H           -3.99398325362128       -2.34720398789053       -5.21162901350270
H           -3.20781019022653       -4.73263903765479       -5.83785670087549
H           -4.58862567423070       -5.31344315373941       -4.90034639766990
H           -5.40683954393075       -5.21115080323449       -7.07558474251075
H           -6.05268707893086       -3.77180916717109       -6.30847631461434
H           -5.35025766942657       -3.15901962414150       -8.48928985329776
H           -4.19731579077916       -2.42760338766898       -7.39426673812550
H           -3.05842380133401       -3.32849841150805       -9.31978786998842
H           -2.54911029462778       -4.22253232945503       -7.90152811882163
H           -2.86300049451708       -5.69233645921466       -9.80186427670207
H           -3.95969536335857       -6.12245157824831       -8.49936032517572
H           -5.07910897034302       -6.29674544255273      -10.63347832673665
H           -5.83689955939995       -5.01662960436788       -9.69837663711279
H           -3.76490694644500       -4.56943917790141      -11.90113771630442
H           -5.50789611731987       -4.40166609897567      -12.10106488263331
H           -4.63916805887658       -3.29992778722438      -11.03986893658801
H           -3.06831233691506       -4.09233821586648       -1.56665013820096
H           -4.48206313937872       -4.50861279003913       -2.52621377720260
H           -2.78141947148957       -5.97533762256236       -3.92367027948701
H           -1.66880683950752       -5.64904700346853       -2.59022395795838
H           -2.71218865576226       -7.66962006552305       -2.03507622136721
H           -3.49500610401013       -6.47057717548023       -1.01356449088348
H           -5.45155360694099       -6.44020595224532       -2.58290532561328
H           -4.60018568448794       -7.56613070095130       -3.64011366648827
H           -6.22555252673943       -8.77205120691349       -2.34121499015033
H           -4.60877745047767       -9.27692455002616       -1.87358170931693
H           -6.07306273401840       -9.08380379025029        0.05881801198528
H           -4.71895991734876       -7.97404023131088        0.18685398704738
H           -6.75470300323431       -6.92141935150268        0.96500368686012
H           -6.19132473115950       -6.08087498156153       -0.47076035812217
H           -8.40509048436918       -8.18795051799359       -0.43613909801872
H           -8.66919616522243       -6.44665941296156       -0.46992446998637
H           -7.91300566656611       -7.24782890391606       -1.84399650145122
H           -2.70874004476715       -1.15459551313655       -3.08598979160828
H           -4.42285618831759       -1.53293662221812       -3.00953725348104
H           -3.75997261240503       -0.84547191008824       -0.93449472231839
H           -4.15533005863379       -2.53288862679168       -0.77980942464102
H           -2.29605176825880       -2.07878425160240        0.60574790893628
H           -1.62867711392577       -3.02495261778119       -0.70783631440565
H           -0.14577883657353       -1.22767227591754       -0.09730578148982
H           -0.67843414048418       -1.02515576182810       -1.74875928658223
H           -0.59666455170543        1.10699912657574       -0.61555601861870
H           -2.24981857157749        0.75420241995693       -1.07740559227625
H           -2.17017124332449        1.74663064933797        1.12981287487078
H           -2.79863490619749        0.10939343304597        1.24366465901199
H           -1.29297439772954        0.56826351073279        3.08068560138124
H           -0.59731364253338       -0.69269519329750        2.07437134169019
H            0.18592353450374        2.25851827842771        1.94162433233475
H            1.08115068115276        1.01534175172751        2.81196541702951
H            0.96665543673175        0.94493905241889        1.05847896650235
