31
 energy: -36.587919101051 gnorm: 0.000430590115 xtb: 6.7.1 (edcfbbe)
C            1.12776978179435        0.21289344711139        0.13408691631574
C            0.74269185765287       -0.82504843300390       -0.91670857761370
C            1.01061775491132       -2.26651693825173       -0.44308310025088
C            0.51674475468149       -2.66718700218858        0.95014648404361
C           -0.98654882115485       -2.94220844578400        1.06567887714447
N           -1.39305859488385       -4.02168969925265        0.19485448638890
C           -2.14551861032031       -3.91795832122487       -0.89479013891554
N           -2.26687505080190       -5.11461302157362       -1.46774958414030
C           -1.56547503403607       -6.00848427940868       -0.71948843792946
C           -1.01679646254231       -5.32324225652406        0.32227905518439
C           -3.00744596340643       -5.40526314322443       -2.66696650619278
C           -0.68516628786890       -0.58262999299586       -1.40557202870211
H            0.42162559614162        0.22403109220326        0.96138098280871
H            1.12962569384629        1.20385079538990       -0.31131873584232
H            2.12346942794433        0.01655755147178        0.52307461390547
H            1.39884093364579       -0.68046787711645       -1.78210901184996
H            0.62009304085376       -2.96278003350429       -1.19119994114609
H            2.09438005441664       -2.39630407380535       -0.43076696167965
H            1.05470376956550       -3.56689440272043        1.25565752590033
H            0.76600060975891       -1.88489696268294        1.66462747179108
H           -1.22175021255619       -3.22434621678776        2.09537530424689
H           -1.56467630665669       -2.05752084836830        0.80363261694679
H           -2.59352297095583       -3.01208182281413       -1.25502070515823
H           -1.50321744885617       -7.04810343105925       -0.96877123420817
H           -0.40488270256306       -5.67161292295180        1.12883655453486
H           -4.04453621796256       -5.08699202988294       -2.55935084367850
H           -2.57030957966630       -4.88500647356857       -3.52026970566858
H           -2.98364142969090       -6.47561764106713       -2.85744147276869
H           -0.73232276661581        0.37632380202937       -1.91512572537491
H           -0.98832627524811       -1.35027294198584       -2.11584184431914
H           -1.39648253942650       -0.54381747645846       -0.58377633377211
