66
 energy: -80.344620263488 gnorm: 0.000378247410 xtb: 6.7.1 (edcfbbe)
C            1.33214884274325        0.80583487633442       -0.87500468020984
C            0.38396714502870        0.59865382930569        0.26002347059637
C           -0.60411458628283       -0.51818116396226       -0.11951611422420
C           -1.79410790701942       -0.60451393628721        0.83538428011088
C           -2.72839095466195        0.60729763313867        0.80209972839699
C           -3.27320312416645        0.97357503016880       -0.58078911653817
C           -4.03055748578123       -0.14850263482417       -1.29523732848750
C           -5.23677442580843       -0.69591940386166       -0.52835662077891
C           -6.30346483592941        0.34172859293167       -0.17505740145903
C           -6.93528696406816        1.05554378285255       -1.37154591066188
C           -7.64312674391587        0.13923124919445       -2.37188950513025
C           -8.76508001962172       -0.71689625381315       -1.78061428691387
C           -9.88423694679142        0.06696900458773       -1.09332122607030
C          -10.61562626747928        1.07074592882046       -1.98700386618316
C          -11.30943664904942        0.46384651133328       -3.20713640873546
C          -12.41218551909290       -0.52250837741015       -2.84244155185041
O            1.28562072461819        1.69663604854404       -1.68677353859319
O            2.24163871928173       -0.19117155167170       -0.96250415560247
C            3.21321602072562       -0.09186941693893       -1.98730021246828
C            2.73246672708694       -0.73307558846805       -3.30378487834103
N            1.56959121385809       -0.03412933836895       -3.82224212640051
C            0.34426300407561       -0.53176529556657       -3.61631884380020
C           -0.78272748196809        0.17479413268662       -3.98005719629390
C           -0.64016604691351        1.42644001324106       -4.56449590951441
C            0.64046511772974        1.91740706860566       -4.78626242337989
C            1.72716301258401        1.16440667310494       -4.40041251865145
H            0.93069369718905        0.31309500051623        1.15766748589514
H           -0.14916157991057        1.53236592457975        0.43041837799549
H           -0.97201862620839       -0.33909675745799       -1.13179655566145
H           -0.07104551768021       -1.47124601811517       -0.11478613793819
H           -2.36230019076076       -1.50070761323539        0.58143951723133
H           -1.42525680619477       -0.73106082717901        1.85464687657047
H           -3.56409908396472        0.40083132680323        1.47113379619593
H           -2.21152487573305        1.48022594705291        1.20587289763831
H           -3.94032475212152        1.82816869634656       -0.46169659571682
H           -2.45028088966641        1.30722390517017       -1.22091189020559
H           -4.36858372845382        0.23056933033000       -2.26276162563820
H           -3.35009665034032       -0.98173543915721       -1.49409397067503
H           -5.69099108875324       -1.48480335067994       -1.13094735348288
H           -4.89302771415947       -1.16153162919935        0.39746863916086
H           -7.08705073247748       -0.16218032038776        0.39271975931109
H           -5.87050777488735        1.09629531201440        0.48503183889803
H           -7.65186268342461        1.78431427479153       -0.98907354215556
H           -6.16642348326585        1.61929891365985       -1.90609549771325
H           -8.05267298921332        0.76134077889160       -3.17045492269505
H           -6.91124759198001       -0.52872017557566       -2.83342630058495
H           -9.19155798933960       -1.31889701399690       -2.58548474606647
H           -8.34122948610490       -1.41372543705317       -1.05390439223189
H          -10.60737420563019       -0.64892393802816       -0.69825170050209
H           -9.47349096622381        0.60709380209146       -0.23761771280333
H          -11.36842202288752        1.57713722138101       -1.37755517666091
H           -9.91034797934340        1.83189710639031       -2.32794195706749
H          -11.74627890755532        1.27974243711405       -3.78859126767642
H          -10.57457113784346       -0.03008051519841       -3.84579310737144
H          -13.12818812550608       -0.05976371477688       -2.16671504551329
H          -12.94319330885075       -0.84179218788883       -3.73623821404677
H          -12.00425614215822       -1.40644712753962       -2.35867877825499
H            3.46085306644605        0.96379502082626       -2.14797368067953
H            4.09065608516982       -0.63269645852469       -1.62865064521178
H            3.54566111569860       -0.68740181527783       -4.03071667736500
H            2.47157252148441       -1.77710104269998       -3.12012915198781
H            0.27589526345231       -1.50175605520252       -3.14534291544599
H           -1.75893374853998       -0.24562492038547       -3.79536617573453
H           -1.50723250277863        2.00716003980984       -4.83685381071385
H            0.79604066743404        2.88353236535601       -5.23816699469511
H            2.73790629594491        1.51826754072130       -4.53762430545132
