29
 energy: -38.814729856374 gnorm: 0.000524922244 xtb: 6.7.1 (edcfbbe)
C            0.67838550280154       -0.00065352533941        0.15142210498914
N            0.40368897067694        1.29513312153514       -0.40752832754949
C            1.28812016407884        2.32803379749742       -0.48989941848933
C            0.63273904994667        3.37793844726698       -1.05727905792345
N           -0.64422999929885        2.97472500204965       -1.30180310443226
C           -0.75687116297418        1.70755118734043       -0.91031793254337
C           -1.64456659077054        3.70910597555817       -2.03559945397969
C           -1.54867660194572        3.35420371976675       -3.53306170627843
C           -1.69760890951013        1.87057556378590       -3.72668914765960
C           -2.95922685028739        1.28827760663513       -3.76712220846100
C           -3.09516242414636       -0.08338507385701       -3.88836247437861
C           -1.97050072132826       -0.88977342695247       -3.96329537073617
C           -0.70981947624204       -0.31911717141528       -3.92256575006345
C           -0.57422675672962        1.05389515789356       -3.80060806314720
H           -0.05628180051701       -0.71950318419545       -0.20420761327654
H            0.63748259896995        0.03970168870731        1.24138771798687
H            1.67379074326393       -0.32767275781879       -0.14536786484789
H            2.30013196919563        2.24851869513901       -0.14886381139911
H            0.98148598408086        4.36314943601245       -1.29131762958395
H           -1.64867345959284        1.11572551822192       -0.97735282494842
H           -2.63010868319837        3.43669342200291       -1.65323350714811
H           -1.48171736427182        4.77705236974026       -1.88426681634745
H           -2.34045817047339        3.88911799197427       -4.05654491003577
H           -0.58778689787485        3.69182393792850       -3.92403921737232
H           -3.83823512810733        1.91418575861530       -3.72091059264259
H           -4.07924705288049       -0.52318861407306       -3.93291676680428
H           -2.07729452912482       -1.95827045195681       -4.06548145267436
H            0.16913597730134       -0.94104397176553       -3.99716926949646
H            0.41278161895977        1.49698977970165       -3.79555553075576
