20
 energy: -28.436877657008 gnorm: 0.000769126376 xtb: 6.7.1 (edcfbbe)
N            1.38134817210849       -1.72588653902824        1.20028609279440
C            2.18139280276750       -1.04701381761201        0.74956445283831
C            3.27164935326043       -0.31164460199506        0.15409291751944
C            4.57037986728003       -1.13193442092804        0.28934139471191
N            4.35593000164895       -2.48922463650788       -0.15993825529990
C            4.45682559366486       -2.93921337456072       -1.44228695540287
C            4.05078953491177       -4.23845533012406       -1.44696025196211
N            3.70262808951894       -4.55964262610183       -0.16966680255860
C            3.89231062222875       -3.48910713580879        0.59071721548856
C            3.19049521868909       -5.83251915617718        0.25980065475210
H            3.03330109285650       -0.12272857697251       -0.89607117543051
H            3.38641614736767        0.64872967063435        0.66043082601479
H            5.36141021483782       -0.67765171556461       -0.31040752969702
H            4.88603060232559       -1.15826634318731        1.33497635672689
H            4.80980154888803       -2.32509205955775       -2.24561785532460
H            3.98886419899492       -4.93800198544113       -2.25573438537121
H            3.69734465002588       -3.43406382455034        1.64463771511492
H            3.82805232110603       -6.63572172054607       -0.10910010261135
H            3.15399976395268       -5.87087540067360        1.34599760686092
H            2.18274020356534       -5.98058640529793       -0.13184191916209
