36
 energy: -50.319393810404 gnorm: 0.000336349699 xtb: 6.7.1 (edcfbbe)
C            1.19338037258209        0.07104367584270       -0.43067034425041
N            0.25291225270647        0.92883096091976        0.24100666462949
C           -0.91523983334407        1.39632718519569       -0.28887916243528
C           -1.49637643620024        2.18143194996009        0.65283254084699
N           -0.67498025487776        2.18716270369662        1.74515071822353
C            0.38432133200087        1.41288962562998        1.48411331158779
C            1.52583265209187        1.13801220351413        2.37629840789485
C           -0.96729418984162        2.90427024513565        2.96681741503585
C           -2.02633690947116        2.18921850624801        3.81136677300033
C           -1.55063623217212        0.83853467652772        4.34723496982164
O           -0.36405380153506        1.06665786229384        5.07807953749142
C            0.30669168721343        0.00639125432750        5.65398682571243
C            1.65160505222400        0.14823959841730        5.85499873251475
S            2.34980523697616       -1.21637157506947        6.61720535592129
C            0.82644220958624       -1.99517813737343        6.64751605701857
C           -0.18650943778252       -1.25179545933125        6.11983521994707
C           -1.59637730166898       -1.75607502010178        6.11272253843179
H            0.86101263780739       -0.09254087998191       -1.45293230966547
H            1.26290192217128       -0.89377377212102        0.07428160422085
H            2.18199307822928        0.53031361703936       -0.44842093654700
H           -1.24082728797271        1.14445388358265       -1.27686477801918
H           -2.41194630338896        2.73476202445430        0.62241417073517
H            1.24376424913758        1.26112531282198        3.41882904106624
H            1.88565083100246        0.12107322489896        2.23414438951743
H            2.35258554611413        1.81697507608940        2.16106219188424
H           -0.05470068650378        3.00977889166395        3.55273201998232
H           -1.32971243481392        3.89793559172863        2.69527108107957
H           -2.25369544946367        2.83394172828976        4.65995446833617
H           -2.93968199078841        2.03845756237266        3.23541871693620
H           -2.33814203340854        0.42558699701445        4.98218691217120
H           -1.36056474828498        0.13270419906443        3.52316601981808
H            2.25057868320774        1.00987633994220        5.63936141393593
H            0.74678404198979       -2.97457073603561        7.07521774236906
H           -1.97714663013745       -1.88564418218316        5.10015584591993
H           -1.62862769720491       -2.72253240576342        6.60906515291159
H           -2.25481212621346       -1.07956272871827        6.65563169196173
