48
 energy: -67.077604556491 gnorm: 0.000250517919 xtb: 6.7.1 (edcfbbe)
C            0.75926098705824        1.07265264701329        0.52208592982018
C            0.20938704805068        1.12386947626907       -0.90094783734999
C            1.17768761698320        0.79306277368976       -2.04395401135370
C            2.08904320497725       -0.41135497886432       -1.82187258935920
O            1.94404462505557       -1.33955148829283       -1.09258864676855
O            3.19057927395428       -0.26800978978048       -2.60719541087372
C            3.07802241586271        0.91588158607040       -3.38172854072432
C            2.18868931264360        1.84054893503071       -2.54336202926855
C            2.97392890987975        2.48048543048811       -1.37802929118387
C            4.25418646436737        3.09674123419767       -1.81143540658034
C            4.49320790723724        4.28271493163737       -2.44837727481372
N            5.83415912032008        4.38070390679478       -2.66604306938033
C            6.41007149573446        3.29426286675253       -2.16094140472116
N            5.47780845327513        2.49432552031516       -1.64642469087776
C            5.72816605223843        1.23182366814517       -0.99961189957992
C            6.53165717494447        5.53441452638061       -3.17659143660159
C            6.95659026159703        6.44232789419771       -2.00577365744980
C            7.82593440730545        5.67879656113563       -1.04548927929460
C            7.26994034237811        5.05349062801994        0.06529308134836
C            8.06133911070483        4.30268048546778        0.91879245749912
C            9.41509686805755        4.16331371149307        0.66514783002027
C            9.97693178279840        4.78237326523436       -0.44017019424597
C            9.18603143938794        5.53232651052686       -1.29241755178195
H            1.29645066742776        0.14405077984083        0.69062863437116
H           -0.07619704788138        1.10093468025446        1.21656847320228
H            1.40471421826697        1.91404449290903        0.75739426156327
H           -0.59760304461625        0.39208095555119       -0.95950299740471
H           -0.22643555326288        2.10603574043582       -1.09720440163873
H            0.55786830802373        0.52199326091912       -2.91008027253186
H            2.59770384565687        0.67944745653635       -4.33830099786919
H            4.08210355778382        1.28981880099994       -3.58441762812410
H            1.72895351449714        2.61545770426109       -3.15626081096861
H            2.34575965062914        3.24584002162744       -0.92154769381439
H            3.18235041504991        1.71307728021397       -0.63358292796523
H            3.80551386293034        5.04422700253553       -2.75430380054112
H            7.46150231513033        3.08566490930237       -2.17983310821657
H            6.78053363838138        0.97856821391931       -1.10282425557801
H            5.48782534031362        1.29903098210329        0.06255037028778
H            5.12594187932707        0.43888866265703       -1.44670563174587
H            7.41524976804487        5.19663472209471       -3.72159726978512
H            5.87094483824726        6.07206623876465       -3.85814670049772
H            7.49958386549107        7.29170288381414       -2.41908456305923
H            6.06698872305294        6.81621526424788       -1.49663838807150
H            6.21720660210976        5.17982786367249        0.28137768136355
H            7.62247214685832        3.83599520557852        1.78761987735415
H           10.03369493300517        3.58530371720654        1.33354947927421
H           11.03393358010660        4.68674017012648       -0.63410549995464
H            9.62923570054825        6.02166268852060       -2.14743690610702
