54
 energy: -78.818585098101 gnorm: 0.000961182933 xtb: 6.7.1 (edcfbbe)
C            2.07020649023301       -0.86033925354883        0.46910262485555
C            1.49994921544846        0.12831808790178       -0.54114056988129
C            1.56921376225943       -0.37511267308549       -1.98403972683164
C            0.77555000004794       -1.65483882360924       -2.26047218385562
C           -0.71385986005037       -1.57938403874291       -1.91384523835804
C           -1.48354137876846       -0.46034132654607       -2.61625152897705
C           -1.55023635381460       -0.61954254218876       -4.13915130014762
N           -2.28333776328598       -1.80847774635143       -4.50389534019202
C           -3.63895884342028       -1.94204378378898       -4.46621457119774
C           -3.93250935924303       -3.22080454224624       -4.82320274366246
N           -2.74842516619053       -3.85861727781832       -5.05248456812682
C           -1.76516954883607       -2.97668785964258       -4.86689057502855
C           -2.56701740018669       -5.13346887905742       -5.67721782198587
C           -1.91938837686418       -4.88338223738686       -7.07746010333307
O           -1.47904101170765       -3.77467049924652       -7.30267736777527
C           -1.87791110048631       -5.99875248298818       -7.99647148924138
C           -1.34381812270023       -5.76842095120274       -9.27678878191310
C           -1.26006535918175       -6.77004647335979      -10.21005288266411
C           -1.69490849134834       -8.06406771556995       -9.89084778276491
C           -2.22124700443528       -8.30322020221532       -8.60991247781559
C           -2.31377801790192       -7.29549794881695       -7.68315837133892
N           -1.63835877696047       -9.07264085271190      -10.80588827163083
S           -0.76372834955913       -9.11132975578466      -12.27259291579547
O            0.35309996395265       -8.23202584718264      -12.17040153012738
O           -0.56709099680338      -10.50014690490765      -12.51356793713787
C           -1.97090018947083       -8.44856348014016      -13.42949057259399
H            1.46972580125111       -1.76515963382313        0.52317641038966
H            2.09085956050875       -0.41201223043536        1.45908097185077
H            3.08691555774146       -1.13613137793818        0.19910884277628
H            0.46923113102232        0.36972438324148       -0.27400780454635
H            2.07251155997525        1.05618474999467       -0.48441506153663
H            1.23008426433983        0.42030094191594       -2.65210908370722
H            2.61447022507300       -0.57428510233721       -2.23044717609596
H            0.90332398418042       -1.91280022155423       -3.31531614433302
H            1.21052284295378       -2.47107049064167       -1.68228172743174
H           -1.17800526997970       -2.54377204670192       -2.14342964110592
H           -0.81542260540165       -1.42929137093636       -0.83924839246862
H           -2.49992495495470       -0.42463098234541       -2.21822285075069
H           -1.01268556132985        0.49751783118545       -2.40136169733362
H           -2.05630514775847        0.24313200657444       -4.57830586390424
H           -0.54713056596374       -0.68927464111896       -4.56052677089869
H           -4.29036159969040       -1.13381658628120       -4.20402204568362
H           -4.87956993778101       -3.71007170475817       -4.92242733873762
H           -0.71926320166898       -3.18344562808110       -4.97666952581796
H           -1.88460602049099       -5.75801070799602       -5.09441192743574
H           -3.53154756890345       -5.63015563204146       -5.77332555760989
H           -1.00001414348415       -4.77229074994154       -9.51283856054814
H           -0.81830671475489       -6.58211891631303      -11.17369846402137
H           -2.55041649521641       -9.29990402315085       -8.35698783074461
H           -2.71149401684792       -7.52807502315150       -6.70777092982723
H           -1.90145559456085       -9.99515106320265      -10.49479489298003
H           -2.80606299644200       -9.13487821855959      -13.46799045445567
H           -2.27675431830028       -7.46757361507938      -13.09106960083843
H           -1.49160617399924       -8.38296393657079      -14.39848285466386
