54
 energy: -60.565754210233 gnorm: 0.000458330706 xtb: 6.7.1 (edcfbbe)
C            1.07176452170031       -0.11250010499686       -0.49452903112378
C            0.83091985806555       -1.49301034953916        0.10350199385447
C            1.16967070315147       -1.57270077309715        1.59220609970538
C            0.32377311122018       -0.67388123542852        2.49658969440847
C           -1.18110605679746       -0.94496277347209        2.45454564773187
C           -1.59381963769247       -2.37100300909490        2.82459696903584
C           -1.12919899044890       -2.84091046351224        4.20433212259884
C           -1.58876251835788       -1.96797947929889        5.37344513954640
C           -3.10523094319540       -1.83280131031098        5.52300239052511
C           -3.85475341670320       -3.15131580757124        5.72443415770083
C           -3.38533174840961       -3.98646550819074        6.91854994067676
C           -3.41404630927951       -3.25929741079067        8.26553735744199
C           -4.78827868004648       -2.74598223955118        8.69222039783106
C           -5.80554397431383       -3.85771864226699        8.99251765818963
N           -5.39517828760316       -4.61802138254913       10.15754112995319
C           -5.68048319959700       -4.15334897006205       11.38073268872736
C           -5.23648982006685       -4.80039410869909       12.51347353498842
C           -4.47178539098642       -5.95388389993583       12.38235842763315
C           -4.18477705998026       -6.41922013704608       11.10608286931691
C           -4.66086146176608       -5.72690736456499       10.01127323217498
H            0.39135997789648        0.62280221009548       -0.07231325729192
H            0.91742361321866       -0.13614921985379       -1.57066890108435
H            2.09208796669483        0.21265314914238       -0.30276611846194
H           -0.20862948058168       -1.78460862200511       -0.05784436624328
H            1.45503238409796       -2.21832201982414       -0.42469461734403
H            1.07004314616141       -2.61023206588223        1.91856937512449
H            2.21754153751337       -1.29106767801921        1.72444126767966
H            0.68326439717859       -0.78624277295218        3.52203506418053
H            0.48873208755998        0.36800551275140        2.21585930164612
H           -1.67332270506861       -0.23928038060078        3.12808326591223
H           -1.55431789411697       -0.73600654173423        1.45030895051520
H           -2.68273784690299       -2.43868152674581        2.76481242805003
H           -1.19262800964971       -3.06219151601278        2.08107256701305
H           -1.47994308443586       -3.86522013287891        4.35293078866432
H           -0.03846327178276       -2.87477748141868        4.21986953326150
H           -1.16421139156720       -2.37663889804390        6.29391651427195
H           -1.17387043759933       -0.96627678774893        5.25275350940596
H           -3.31013648552518       -1.16165089228830        6.36091751994740
H           -3.50860225779566       -1.35375029775810        4.63002789649228
H           -4.92108816282526       -2.93175109062534        5.82271807954533
H           -3.74221326077546       -3.76295396150984        4.82836799269910
H           -3.99760157944557       -4.89205301762205        6.95929951366905
H           -2.35943337235016       -4.30981000252208        6.74010429538128
H           -3.00750616047878       -3.92127263876554        9.03747734469343
H           -2.74552585694025       -2.40058202071835        8.20833940987403
H           -4.67788006439146       -2.11815704972867        9.57921597530429
H           -5.20507326637687       -2.12642885391915        7.89953176215735
H           -6.78382581841197       -3.41440256034764        9.18683510450016
H           -5.88762733139258       -4.52718623966618        8.13608754551532
H           -6.27524040654278       -3.25375879119081       11.43937484726451
H           -5.48636491201301       -4.40660360667986       13.48535167226737
H           -4.11176385566186       -6.47736215820390       13.25365523935210
H           -3.59795447318497       -7.31097122611457       10.95750139124788
H           -4.46535442339697       -6.06289585063625        9.00418668386947
