11
 energy: -17.961481015666 gnorm: 0.000913872380 xtb: 6.7.1 (edcfbbe)
N            0.98525147825814       -0.10911825720162       -0.18888458613190
N            1.00813406300757        1.06535715425194       -0.93369935330772
C           -0.35600524848628        1.55552062399853       -1.42352523040318
N           -0.48739887459584        2.76215791521734       -1.14168736647967
C            0.67852608775381        3.16171857979836       -0.46872638312479
N            1.54299670703902        2.24431673249382       -0.32393185616259
H            1.91819961283364       -0.45322556465944        0.02459570184511
H            0.45984606916781        0.00136401348073        0.67581670043109
H            1.58494990116008        0.88023061510567       -1.77820923388177
H           -1.03472414736351        0.88295118959018       -1.91293806345257
H            0.80507435122558        4.16852699792451       -0.10925032933200
