24
 energy: -28.940290242685 gnorm: 0.000656716153 xtb: 6.7.1 (edcfbbe)
C            1.87795287188622       -0.05449532963245       -0.30940518786663
C            0.58793020331240        0.14247147209711       -1.09399761666311
C            0.33084153081847       -0.97906659790168       -2.11085275784725
N            0.11827607540815       -2.24836046796589       -1.43712910590411
C            1.14060372093178       -3.08701235859203       -1.25337156190076
C            0.96795844750711       -4.26519114883198       -0.55226382485868
C           -0.27833163202745       -4.57294161934653       -0.03461157843546
C           -1.34570829006556       -3.69018653498623       -0.22677577441439
C           -1.09128764155270       -2.52911965229114       -0.94025619317212
C           -2.70465963798567       -3.98860535779302        0.29666372211432
H            1.84046245805276       -0.94801638230634        0.31144564046337
H            2.03855818243566        0.79605343028832        0.34633862518063
H            2.73220340508298       -0.12506954377250       -0.97851551289293
H           -0.25698720284448        0.21296597438850       -0.40631241194452
H            0.64284176734374        1.07787696482113       -1.65078042649513
H           -0.55384232259389       -0.74217060381342       -2.70478109880003
H            1.18811328149203       -1.07228006014657       -2.77934491992949
H            2.09513136785095       -2.81190616757517       -1.67456477007204
H            1.80476449358717       -4.93086547400305       -0.41650457510651
H           -0.43109917403141       -5.48907599160462        0.51464051021015
H           -1.87506224591494       -1.80815065561157       -1.12270832102767
H           -3.19290601245606       -4.72133689857704       -0.34691505601007
H           -2.64574493219333       -4.42155925017070        1.29260420657373
H           -3.32608871404320       -3.09828774667346        0.32888798879840
