33
 energy: -47.456453127447 gnorm: 0.000152349383 xtb: 6.7.1 (edcfbbe)
O            0.55555913893628       -0.11223580468278       -0.15268074018504
C            0.29462223324472       -0.87238297984576        1.01031219343613
C            0.92428366113919       -2.24768121598208        0.96356910654471
C            2.22645286579474       -2.39841203269300        0.50980959375603
C            2.81176803886717       -3.64994139270576        0.45919761676589
C            2.10566233770396       -4.77255456633312        0.86537995352611
C            0.78221033997261       -4.62115589021823        1.32246433596697
C            0.20386571912108       -3.36734432679949        1.36928151697047
O            0.14086729533640       -5.76329620688579        1.69978849941520
O            2.68019128084205       -5.98441282100802        0.81740666165100
C            0.87525887703576       -0.14150595393040        2.23945548917014
N            0.52738145791672        1.30551911910752        2.38488321398407
C           -0.89027102238567        1.54653760778801        2.06454250577906
C            0.78519432538339        1.71037356950156        3.77945249562058
C            1.36948862467675        2.12300273627203        1.48922625700415
H            0.61473090354133       -0.70513099488913       -0.91020474003151
H           -0.79423927552310       -0.98645666585688        1.12974431522930
H            2.78690419412807       -1.53662318027644        0.17931173157112
H            3.82032405064335       -3.77992563879245        0.10434782999227
H           -0.81592661455042       -3.26310857762242        1.71527044008413
H           -0.76666018064262       -5.57840091345899        1.96442736380140
H            2.04805088725005       -6.65162613260958        1.12245767342430
H            0.52318800865274       -0.67530805386267        3.12376265921851
H            1.96322720240194       -0.21859409082384        2.19857514605339
H           -1.52686238001713        0.89265620760811        2.65779827680464
H           -1.14853585272685        2.58059194228302        2.28532226781094
H           -1.06283644378800        1.36174487043303        1.00636342653438
H            1.81102851293998        1.47407900648378        4.05704980562628
H            0.63290035437211        2.78282049533655        3.89003568167092
H            0.11042791746812        1.19151716602965        4.45824852533276
H            2.41400375676870        2.04543150469499        1.78406961658276
H            1.26077198404723        1.76526071889907        0.46721226256272
H            1.06526780145293        3.16628249483787        1.54263901832884
