52
 energy: -74.304399551866 gnorm: 0.000227205844 xtb: 6.7.1 (edcfbbe)
C           -0.47090625538408       -1.06901721274178        0.81343290928270
C           -0.34585179142371       -0.01450400689471       -0.28317026998051
C            0.54219108942301       -0.34968384919477       -1.48861816510845
C            0.39633250510698       -1.75922729748246       -2.05672252840292
O           -0.51647077347540       -2.51611627764325       -1.96477974386542
O            1.54390429797472       -2.07941733475085       -2.71287196519870
C            2.44245524907632       -0.98131360535317       -2.67432870189558
C            2.07356281462377       -0.22776122999754       -1.39197780074385
C            2.62258817715472       -0.93724824496358       -0.13521076934177
C            4.05980976590447       -1.29700896942717       -0.24343912857374
C            5.18122910910685       -0.52652830293197       -0.10309031444606
N            6.26596969301834       -1.32047731083336       -0.32222166521175
C            5.82899459592807       -2.54681779666891       -0.58423607567465
N            4.49880852480254       -2.56410204688664       -0.54432384418575
C            3.67623575296217       -3.72737207418412       -0.75973316030436
C            7.65081913530532       -0.92961280594397       -0.20312352797558
C            8.13493667520281       -0.99707077347967        1.25111320276081
C            7.87124957004028       -2.36799235611205        1.88140302009375
O            8.21456977244165       -3.35483150590164        0.93581201370028
C            8.11546959696309       -4.68344035394153        1.29106511113884
C            7.66683935275304       -5.14477493322910        2.51940711208958
C            7.59127244422238       -6.51069233093368        2.74758435984910
C            7.95068934542519       -7.41346931203618        1.76481949687525
C            8.39630028122082       -6.94818465445932        0.53741285960119
C            8.47638151696939       -5.59129758941017        0.29755047242016
H           -0.70816780533891       -2.03847426236787        0.38549735591882
H           -1.29041169778486       -0.78904149179718        1.47005840490314
H            0.42174387248985       -1.15078200841948        1.42691159515070
H           -1.34834694823988        0.15767584894820       -0.67751867602223
H            0.00243131115266        0.92826825123710        0.14458382333091
H            0.22759996578377        0.31698326432977       -2.30370678047839
H            2.28043903856965       -0.34913770469819       -3.55508808505309
H            3.46077303690052       -1.36934711772510       -2.71238399654173
H            2.42020642918315        0.80485520532848       -1.42252932541182
H            2.48447405454812       -0.27421774156535        0.71928647710234
H            2.04356454273778       -1.84470672239995        0.03217370793109
H            5.26946678587218        0.51458047355330        0.13076099478038
H            6.46005889574136       -3.39238292701434       -0.78032011035548
H            4.30826001751663       -4.56518835690635       -1.04491563624993
H            3.14359108188781       -3.98795532740667        0.15623803785287
H            2.94527918476280       -3.54710417660195       -1.55008459820951
H            8.24896741127680       -1.61471785986788       -0.80508972011635
H            7.76521632478462        0.08614562116711       -0.58508606218094
H            9.20649520165095       -0.80201783618286        1.24203090982240
H            7.64974111157456       -0.23258285914428        1.85809819229425
H            8.47126401568038       -2.46988791314340        2.79292994025550
H            6.80909567006798       -2.46445280295974        2.15827176440985
H            7.38631172139090       -4.46251914073119        3.30648683305513
H            7.24892548641500       -6.86360886376291        3.70819511905739
H            7.89113973102402       -8.47337867827754        1.95378953972424
H            8.68646222143519       -7.64365725810634       -0.23478491920939
H            8.83537889344362       -5.21270544009746       -0.64753768257861
