30
 energy: -35.244115283093 gnorm: 0.000420015100 xtb: 6.7.1 (edcfbbe)
C            1.24382912367623       -0.41055963056834        0.06770571068463
N            0.59288733790456        0.33634136660842       -1.02286156788992
C            0.68578456380688       -0.40823293147329       -2.31898078077639
C            0.25039549783671       -1.87751575059155       -2.31193402608657
C           -1.22396734649340       -2.10911351018337       -2.08934975447032
C           -2.15012483276462       -1.66797242898453       -3.02809006840600
C           -3.50269546944858       -1.88444083880811       -2.83566142879843
C           -3.94618444166507       -2.54841410108646       -1.70369505392150
C           -3.03133828699660       -3.00358187064674       -0.77022615562193
C           -1.67725700565584       -2.78516656753048       -0.96241306255106
C           -0.81177017798373        0.60010082421096       -0.66053839605071
C            1.28455739757168        1.62977820444114       -1.19239462409091
H            0.66891267497620       -1.30052039486033        0.31107637370092
H            1.30469465630192        0.21250614978561        0.95832690356771
H            2.25156797635565       -0.70163294322155       -0.22392969546245
H            0.08421096309684        0.13787738837234       -3.04826244301261
H            1.73038290974886       -0.36725013849760       -2.63619251352735
H            0.50781514190437       -2.25922006044655       -3.30366586763184
H            0.83358690457186       -2.45392009564961       -1.59413181382410
H           -1.81058108262486       -1.17031238733936       -3.92511043475425
H           -4.21023332462106       -1.54531056065771       -3.57587421076468
H           -5.00003978437200       -2.72315713998124       -1.55734408759539
H           -3.36823185870120       -3.53621154441665        0.10504958156619
H           -0.96918605904589       -3.16472666692546       -0.23814577564830
H           -0.85537793661798        1.15339622549170        0.27596001250029
H           -1.29670923099931        1.18775014839627       -1.43773747642450
H           -1.35461535361101       -0.33673839619428       -0.54663738551290
H            1.18360646328205        2.22977430712686       -0.28972006583182
H            2.34397093284151        1.47280948721223       -1.38768172655819
H            0.85372964772531        2.18238385641751       -2.02543016680402
