120
 energy: -174.491363866117 gnorm: 0.000489896001 xtb: 6.7.1 (edcfbbe)
C            1.46515498082300        0.53309609226537       -0.00806883616924
C            0.75787975699690        1.62262479152374       -0.80553384120353
C            1.15500692519210        1.64448488534574       -2.28241383846525
C            0.82873616331773        0.36636760829626       -3.05737093348388
C           -0.65377387897845       -0.00925628960451       -3.09029431197001
C           -1.56959095142875        1.03218968139689       -3.73702576736295
C           -1.22471704434666        1.39179176663771       -5.18437965492673
C           -1.12312947242924        0.20322957640882       -6.14221576741238
C           -2.38534016292395       -0.65330516126221       -6.25559999370112
C           -3.53461639813157        0.02825136602650       -7.00800775345716
N           -3.16913811382815        0.35419469746661       -8.36707121776036
C           -2.85754091771370        1.62082734472869       -8.80079174562998
C           -3.00583820618697        2.86640231522612       -8.21322978187904
C           -2.59595204241018        3.97569382920957       -8.93760094620475
Cl          -2.76202610634772        5.53730832277953       -8.23879920754091
C           -2.05450581518900        3.84349539117557      -10.22472456809239
C           -1.91189593504379        2.59810786569593      -10.81783643572052
C           -2.31961119840518        1.49048759538121      -10.09347946627742
N           -2.30812136002490        0.14903517688091      -10.39667231089963
C           -2.84712301253986       -0.54618892232637       -9.35304870346222
C           -3.14438977082555       -1.90348393811222       -9.21922439266795
C           -2.81690260608999       -3.02768089288447       -9.96640198356665
C           -3.29679919847640       -4.26057072259230       -9.54172962989348
C           -3.10266661438620       -5.57326506439400       -9.96693366250740
N           -2.45401076763061       -6.08328716495316      -11.05786808483762
C           -1.87929629283737       -5.40524818491742      -12.19164192627555
C           -0.34588927078143       -5.40615045722635      -12.14756449201236
C            0.23179766972827       -4.87277901155545      -13.45722514231678
C           -0.14752392537598       -3.42161856043437      -13.64384552692644
O           -0.52645671436384       -2.72922502411008      -12.72642325071837
O           -0.05308441767015       -2.99950119469188      -14.88290535241176
C           -2.48968498824275       -7.45949379074857      -10.99799434864652
C           -3.19980517445687       -7.80728199215558       -9.83907513332439
N           -3.58548789618041       -6.63427500547652       -9.23609841705172
C           -4.43163230884233       -6.62731265023067       -8.06388223582831
C           -3.64823249338528       -6.75839775673214       -6.75171970022617
C           -2.99065794998579       -5.46308281259562       -6.27240343713354
C           -3.98197138789333       -4.40051762509298       -5.78833195925661
C           -4.66330171503648       -4.72548305225676       -4.45687730553459
C           -3.74609138533879       -4.66999381580433       -3.23383274947722
C           -3.10667292568629       -3.30611303464443       -2.96395296743555
C           -4.09214105579106       -2.14468955594259       -2.81341309790343
C           -5.12240906729873       -2.31221489065740       -1.69548744569698
C           -4.49427463270200       -2.38550747204844       -0.30933884419962
C           -3.40892652291227       -9.13249618468251       -9.49488386146860
C           -2.89592411421900      -10.10368651929123      -10.34265606296401
C           -2.19754965857663       -9.75554629852521      -11.50821004902264
C           -1.98720878650897       -8.42734601388137      -11.85084522155645
Cl          -1.58418283122420      -10.98910837364156      -12.53611714240584
Cl          -3.12680447480859      -11.76113470783411       -9.95088169168384
C           -1.78644990294348       -0.39183869199954      -11.62315722180950
C           -2.88396548563498       -0.75116186987233      -12.63594884737453
C           -3.10614558673660        0.35220230905097      -13.66646976375091
C           -1.93151882089979        0.47513150253002      -14.60829901034580
O           -1.20190442873821       -0.42991606422185      -14.93459922484332
O           -1.78675375199880        1.71282305963784      -15.06086395343913
Cl          -1.56503793227737        5.24342152977671      -11.09394630950040
H            1.15036443147797       -0.45717212232314       -0.32790723291370
H            1.23639253243148        0.63337037068026        1.05028818935266
H            2.54308367769548        0.60965719233825       -0.13292838854962
H           -0.32271513840056        1.50024172840645       -0.71114244635334
H            1.01163163809505        2.59394250473113       -0.37466022362173
H            0.66814363512833        2.49544428880119       -2.76353590264010
H            2.23320385089003        1.81053330011973       -2.34828259750259
H            1.19646767325197        0.48389348751072       -4.07919155624993
H            1.37928483946938       -0.46632778452212       -2.61590247969611
H           -0.75494667301870       -0.96057049079415       -3.61806466157895
H           -1.00054843590797       -0.17770717049746       -2.06930151899179
H           -2.59790370878066        0.66444428526667       -3.68977915885055
H           -1.53768918871284        1.94967068760616       -3.14750592229807
H           -1.97318556974250        2.09789174789820       -5.54938585595974
H           -0.26681823385507        1.91343376145994       -5.20272839915416
H           -0.84997846183123        0.57837825269874       -7.13242038691493
H           -0.30911881619525       -0.44284083497562       -5.81195926232859
H           -2.12576969001765       -1.57844740418719       -6.77476896409578
H           -2.74335942143553       -0.91442865796831       -5.26065790767757
H           -4.41652530936467       -0.61936248574265       -7.01049234982484
H           -3.80644108435202        0.95768644121229       -6.51048079952753
H           -3.42849664953086        3.00268114921736       -7.23262599057978
H           -1.49759914252101        2.52692540591381      -11.80923818495220
H           -3.74723254980927       -2.11198582246722       -8.34571900861904
H           -2.16543850147337       -2.94913785394121      -10.81880981758884
H           -3.91312775029755       -4.20069240346672       -8.65728645596625
H           -2.21608573064806       -5.93159691219475      -13.09114787292484
H           -2.26029416023544       -4.38699568853642      -12.23126094089817
H           -0.00906208942171       -4.77416130153572      -11.32448471024030
H            0.01450230903251       -6.41942135234823      -11.97189897311680
H            1.32178253433098       -4.93157288727088      -13.43964730410528
H           -0.11489725822526       -5.44306677684221      -14.31925765683259
H           -0.34563509479590       -2.06383657920075      -14.97116752216623
H           -5.04724087696380       -5.72803075974557       -8.06240847286326
H           -5.10567402386854       -7.48166735967235       -8.16477844853115
H           -4.33444654587638       -7.11735997063996       -5.98480212360804
H           -2.87869217179204       -7.52081788608396       -6.88667241873472
H           -2.31402674670644       -5.70709923048182       -5.45331810743785
H           -2.38134152671601       -5.05010360124378       -7.07963571541791
H           -3.45046270193536       -3.45342386421392       -5.69097609277371
H           -4.76473313174855       -4.25375750670676       -6.53725553164346
H           -5.48556546802794       -4.02262618414167       -4.31325905463572
H           -5.10585110725360       -5.72212332819668       -4.50864944257303
H           -4.33137833260275       -4.96673276407990       -2.36239842697237
H           -2.94625751473198       -5.40555060556489       -3.34290949671827
H           -2.51284314867141       -3.38603246867925       -2.05245286972511
H           -2.41040565338179       -3.06638711623802       -3.77187510630582
H           -3.51439572344626       -1.23883515141243       -2.61248050500619
H           -4.62260059238881       -1.99189041822356       -3.75732142228199
H           -5.80012495443763       -1.45535414904195       -1.72967746725226
H           -5.72232744384273       -3.20631962021865       -1.87157856196170
H           -3.86022547666554       -1.51936976066395       -0.13201754012881
H           -5.26914142519165       -2.40273417264504        0.45304616768081
H           -3.89180322218046       -3.28299680053765       -0.19724369629331
H           -3.94123451678997       -9.42500826683376       -8.60603077491496
H           -1.45154346214512       -8.18894285750721      -12.75344628497839
H           -1.11420353588222        0.35093824765112      -12.05301133139124
H           -1.18381704921956       -1.26771354658157      -11.39423354782281
H           -2.57969997598904       -1.65457812698481      -13.16288625331084
H           -3.81444957684701       -0.95875101453341      -12.10707277187146
H           -3.97387834630210        0.11074387722758      -14.28658104298355
H           -3.29309592507258        1.32020029802840      -13.20145615261243
H           -1.06610830976638        1.78446609272603      -15.70872071571275
