34
 energy: -41.144169736330 gnorm: 0.000627904158 xtb: 6.7.1 (edcfbbe)
C           -0.22919150891894        0.79749777595999        1.68631171763297
C            0.08352058040317       -0.62224583108191        2.14000069674561
O            1.47476894653809       -0.84884245300357        2.40257024640824
C            2.30653483787384       -1.30485924733553        1.39213315615904
C            1.98327295578385       -2.79942167508213        1.07870646984213
N            2.66675508758571       -3.41145931827134       -0.09231291483583
C            4.08959492002838       -3.02750762245437       -0.14182951991464
C            2.57169780725376       -4.88009673747157        0.02783994401469
C            2.00404811855183       -2.99322139964940       -1.34479403686639
O            2.27936428505778       -0.56671814541544        0.21001225856547
C            2.93981259608026        0.70402706126313        0.28845906971437
C            2.84362875272371        1.37830938931810       -1.06751843893751
H            0.22667958009017        1.51451778686988        2.36330354489411
H           -1.30565590470268        0.94297366662253        1.70232641574569
H            0.12782206339449        0.97658945783005        0.67584377684751
H           -0.39621227752370       -0.81800857713106        3.10165128732066
H           -0.29870612079860       -1.33607962450813        1.40317302524384
H            3.31098527391656       -1.24094644920325        1.85005413680744
H            2.24552578760217       -3.35529587339682        1.98122953553710
H            0.90727232509065       -2.89108211217111        0.92174573328414
H            4.57207289030580       -3.24248330542240        0.81016033115558
H            4.59576398434996       -3.58871570035620       -0.92574693758556
H            4.17745168748726       -1.96619475842334       -0.36074254399038
H            1.53245204251527       -5.18449083918257        0.13980042317322
H            2.97820979674126       -5.35248611815120       -0.86486613753551
H            3.13316879349445       -5.22863235949756        0.89287278801042
H            0.99106249996062       -3.38984433205581       -1.38204298948259
H            1.96083813805422       -1.90610167923741       -1.38454189169931
H            2.55880648867768       -3.36828517902426       -2.20252755229697
H            2.47004770938989        1.31475549842142        1.06430416511854
H            3.98945447131518        0.53787971306186        0.57031012238071
H            1.80346512201558        1.51371501609490       -1.35112948196979
H            3.32205780573884        2.35118968534755       -1.01862044261522
H            3.33856046391703        0.78326428673696       -1.83131595686938
