24
 energy: -37.968535609854 gnorm: 0.000680418364 xtb: 6.7.1 (edcfbbe)
O            0.84602939468033       -0.27246593468312        0.04084383332204
C            0.35098191732522        0.34760680398739       -1.05434242809236
C            0.75252321694229       -0.11257659340257       -2.31139989779561
N            0.32864606421032        0.52447437191838       -3.42344998744019
C           -0.47678177136096        1.59381632301500       -3.33827633025579
C           -0.93961234320717        2.05972875442094       -2.13777765039999
C           -0.55674182510056        1.42472221152881       -0.95347804520992
O           -1.04387697518160        1.87961076816730        0.19539442703606
C            0.74007375019536        0.07821229158496       -4.74087455026944
C            1.64474733286785       -1.35174692050056       -2.39651422884113
C            3.08581857849167       -0.97655501756395       -2.03290484949350
O            1.12663055899613       -2.38441861780507       -1.61828176970278
H            0.72723207619105        0.24220556179964        0.85079042537470
H           -0.76632979237299        2.07226146420710       -4.26042762854227
H           -1.60634832224363        2.90413353117978       -2.08440656820425
H           -0.93095918701088        1.28681654140523        0.95281427240823
H            0.34758260946616       -0.91836059169960       -4.94653211181909
H            0.35210166485497        0.76014744329045       -5.49376998070317
H            1.82628939409545        0.05669486349473       -4.82052957419231
H            1.62210261015082       -1.74997378369867       -3.41321787408397
H            3.14053763354594       -0.61095422815766       -1.01093481722141
H            3.70974911412859       -1.86191339504251       -2.11778997861462
H            3.47088719974423       -0.21253521455162       -2.70249492683679
H            1.33239710059141       -2.24150063289435       -0.68542976042245
