101
 energy: -105.391680932433 gnorm: 0.000213014289 xtb: 6.7.1 (edcfbbe)
C            1.02056678490907       -0.27553453233798       -0.80012168718871
C            0.76929041979630       -0.79300427443467        0.61101866602273
C            0.87146419492898        0.29666068132077        1.67904244610460
C           -0.16558994918674        1.41544653450923        1.56020966356657
C           -1.62349489382396        0.96310019027204        1.66801397726548
C           -1.98056536103924        0.22830554783740        2.96198639880651
C           -1.66337881010836        0.99335903186084        4.24800908950471
C           -2.36793179612171        2.34446868303559        4.38114935241114
C           -3.89286423373787        2.27177924741707        4.48195382250220
C           -4.43202290254090        1.45851479161148        5.66349031520029
C           -3.80627601033180        1.79650390242741        7.01862000083359
C           -4.03911979711273        3.24279667566271        7.46893626264849
C           -5.32575477564240        3.43629205585654        8.27055381405334
C           -5.26445299920567        2.86098748280872        9.69166946051590
P           -4.53126846221056        3.96031189133162       10.96292543953783
C           -5.41303789365000        5.56728843706524       10.90532305731821
C           -6.93067595416295        5.52725127884076       10.70752067045274
C           -7.71836276066923        4.89096597701862       11.85224904761807
C           -7.64666817788420        5.64171512392346       13.18462996521299
C           -8.20017964599215        7.06822988685973       13.14872685965189
C           -9.67569124219803        7.13544097423285       12.77470246766612
C           -4.70065295161127        3.25221707216085       12.65423802655728
C           -5.12068691354989        1.78381829229738       12.74115702545379
C           -4.00186886874664        0.81171412129399       12.36407609751091
C           -2.96948889267965        0.60139215082823       13.47547496631563
C           -3.46939505401355       -0.25019232892620       14.64473371369805
C           -3.68820638413526       -1.71198142452858       14.27436859257407
C           -2.78080021612448        4.48301045916295       10.74985316045987
C           -1.68102627439744        3.47158852780363       11.08176852453911
C           -1.38975561309901        2.46309818888845        9.96865880690804
C           -0.52590408060924        3.03672702242548        8.84118164328248
C            0.95909118396216        3.14404964882017        9.19608921548730
C            1.65956422238177        1.79141252011595        9.24097705622513
H            0.24315970502846        0.41861170830115       -1.10873100341490
H            1.03427488471830       -1.10177211802538       -1.50701768450183
H            1.97978143213284        0.23518838812311       -0.85263935990139
H           -0.21269778296814       -1.26699910337747        0.65586210216839
H            1.51129332512070       -1.56186625535603        0.84061561193947
H            0.78963417349566       -0.17005018304439        2.66310635859319
H            1.86470863433285        0.74940643193539        1.61791427862350
H            0.04101471864321        2.15632909354968        2.33616881066427
H           -0.03710994027387        1.91945530265250        0.60071780011418
H           -2.26235741039145        1.84319499089604        1.56306361345980
H           -1.85689034012594        0.30335956280373        0.83051631043023
H           -3.04603053060420       -0.01141153330282        2.93661693701660
H           -1.44200810770466       -0.72081565585928        2.99315818221651
H           -1.92713209538655        0.35727160886413        5.09630487470983
H           -0.58670966374772        1.16587810813875        4.30131562429790
H           -1.97198073770956        2.85958493267632        5.26024878233677
H           -2.11686086050800        2.96155369365910        3.51751333538984
H           -4.27805737801295        3.29355701078081        4.53312236156971
H           -4.29282122730356        1.83507122710424        3.56614880169166
H           -5.51400806749648        1.60386373888791        5.71430491904347
H           -4.25956070346737        0.39834530544337        5.47195379786889
H           -4.21143422205249        1.10297179586853        7.76020745268397
H           -2.73461732051866        1.60899894530827        6.96169830151331
H           -3.19232963474411        3.58074631407390        8.06427088785031
H           -4.08560140509203        3.88192651121012        6.58821016735951
H           -5.56578732782852        4.50055620726108        8.30600823922870
H           -6.14061481715921        2.93735673206090        7.74258331021215
H           -6.27950971724553        2.67095365166882       10.05583609913690
H           -4.73263630446202        1.90852891255032        9.69598764557879
H           -5.16529755243263        6.09297534466551       11.83195190720112
H           -4.95898689506189        6.13158993831844       10.08360665781534
H           -7.27022950922352        6.55543173097773       10.57416254206200
H           -7.16874937104704        4.99381406884603        9.78590445206115
H           -8.76347380499166        4.83478480549771       11.54675002035214
H           -7.37597467676015        3.86232263384314       12.00093203340869
H           -8.21734925873618        5.06991795921593       13.91949404772862
H           -6.61382834742283        5.68491667801615       13.54241725078424
H           -8.07120347361943        7.49811904408864       14.14397376788750
H           -7.61885524453993        7.68183240177969       12.45739764111051
H          -10.26257277656247        6.48925734649217       13.42300007239959
H          -10.04108697057682        8.15241814372338       12.88819089659047
H           -9.84078575468830        6.83450382254529       11.74318590976845
H           -3.73943994961414        3.39475087602785       13.15468780569639
H           -5.43047524220456        3.87424659634486       13.17600861487433
H           -5.43125154601369        1.58619045799939       13.76804238424683
H           -5.99266771752424        1.60852954698515       12.10829658410641
H           -4.44029100590133       -0.15290952124491       12.11002722951094
H           -3.49098535006822        1.18498024636844       11.47236233981921
H           -2.09356795025229        0.11167693326005       13.04539691180406
H           -2.64284237748638        1.56894637280568       13.86570733888433
H           -2.72363702742276       -0.20014670457793       15.44016889504605
H           -4.39644612964587        0.16514896867801       15.04478608861686
H           -2.78037274893765       -2.13926805458960       13.85515978116942
H           -3.95585192541664       -2.28305000376206       15.15912903711996
H           -4.49039136513874       -1.82567201600900       13.54940378076202
H           -2.66197895382483        4.86497703064783        9.73367061043463
H           -2.69516307030628        5.34008678285706       11.42958627380861
H           -0.76839120005471        4.03377531441042       11.28679651092524
H           -1.93456379265784        2.93636974229287       11.99762093989339
H           -0.87146353343316        1.60758139974958       10.40159199181923
H           -2.33088990318131        2.09503052662681        9.55594428298653
H           -0.61990310980241        2.39538175051892        7.96283016669842
H           -0.89245056620617        4.02786149193519        8.56204447806208
H            1.44697558273837        3.76321012657958        8.44121737185691
H            1.08042093946778        3.64778846683249       10.15722792687195
H            1.56186518092131        1.28034615161302        8.28608706324602
H            2.71762290295031        1.92601710284596        9.44827021845893
H            1.24573632414860        1.15193733445788       10.01685569698455
