30
 energy: -44.685767144605 gnorm: 0.000401253007 xtb: 6.7.1 (edcfbbe)
F            0.99023543779122       -0.17829747915834        0.67409062967451
C            1.98085193221689       -0.11726589732610       -0.22135645336552
C            2.31388288846594        1.31267685887458       -0.62431615649223
C            2.28665148089409        2.29679088700347        0.55410846522868
C            3.06381573974378        1.92325081747816        1.82384771019220
N            4.51403652783899        2.27939137314334        1.90463571892011
C            5.02341090630023        1.72056461791515        3.17307857376446
C            4.71381170885590        3.76878307261273        1.87853839053470
C            5.80737318476899        4.03980380877177        0.84940883191221
C            5.60807648236074        2.90827856554489       -0.15404579526227
C            5.32729921588996        1.73154695465270        0.76913902252859
F            3.04614678998223       -0.71916242542347        0.36257549261682
F            1.64469884679217       -0.86500694074736       -1.26301352150734
H            3.26859967238533        1.28880842935866       -1.15110144360396
H            1.55183410069799        1.62112524378017       -1.34369751225345
H            2.58599751816452        3.27505395655928        0.17834933494005
H            1.24393105162109        2.38591411267526        0.86768334615155
H            2.58419615693139        2.43430486205965        2.66220428416803
H            2.98041997386502        0.85238673634366        2.00993936355197
H            4.41811634508123        2.06227036552102        4.01113343813099
H            4.99139250034013        0.63235457994568        3.14063562406915
H            6.05256412396880        2.03808300936585        3.33067710941683
H            4.97474423370230        4.12705228181772        2.87278786574444
H            3.78389521671657        4.25002487017424        1.57940903990473
H            5.70476102814615        5.02521013776411        0.40293865480849
H            6.79616476819126        3.97361398471557        1.30264578684893
H            4.76984899695878        3.12225344370169       -0.81566368016221
H            6.48841026342777        2.73351756734993       -0.76708711841939
H            4.81803374948240        0.89159645310050        0.30706415393197
H            6.27281915841867        1.36661575242467        1.17230084402730
