31
 energy: -39.774140848961 gnorm: 0.000184326819 xtb: 6.7.1 (edcfbbe)
C           -0.56228311679113       -1.01322270097804        0.53250911155038
N            0.45301022682087       -0.53020364254535        1.48887549600175
C            1.03845148053186       -1.62633064857621        2.28592522492634
C            0.87436671166410       -1.36040126911051        3.58536719971466
N            0.30750539581811       -0.14663331199660        3.80107599522546
C           -0.08742074244602        0.41125602357712        2.52165373271043
C           -0.36998889183260        0.23442478767846        5.01843913159666
C           -1.79135833418326       -0.34651206093016        5.13002125208102
C           -1.77500021987400       -1.83841649347908        4.93945594936368
C           -2.25531122097564       -2.41456185749833        3.77112621550249
C           -2.19644986337160       -3.78493892673481        3.58200423452282
C           -1.65334258167040       -4.59578216457800        4.56305733837525
C           -1.18112107956249       -4.03232502657216        5.73722245039180
C           -1.23995556085573       -2.66312070793030        5.92276326340369
H           -1.01995702335653       -0.17647045448405        0.00716952203781
H           -1.32276328023283       -1.57229750904202        1.07572361357607
H           -0.09614594664291       -1.67599588439948       -0.19427640589655
H            1.19289747232254       -0.06853490161996        0.94935111827811
H            1.50294927489478       -2.44760617638848        1.78735869226586
H            1.17905673367982       -1.97657691781823        4.40871759110748
H           -1.17984835753722        0.46933175330044        2.43140749040143
H            0.33292001448797        1.41522657971852        2.39381666464404
H            0.24014730685719       -0.12889244627827        5.84634859761981
H           -0.40099741123579        1.32530857165029        5.06605375367697
H           -2.17315086877947       -0.09844238135525        6.12072397945568
H           -2.44982622689782        0.12091093153682        4.39549860767103
H           -2.71507909610196       -1.78867303748292        3.01625363963469
H           -2.58580285497142       -4.22137740135025        2.67432571979834
H           -1.61227125125179       -5.66414637003221        4.42046770402904
H           -0.77436114772807       -4.66212059966401        6.51329992960059
H           -0.88388954079374       -2.22993575663401        6.84629318670692
