25
 energy: -29.696031979928 gnorm: 0.000344896712 xtb: 6.7.1 (edcfbbe)
C            0.26722054319154       -0.44244152658740       -0.51755125604314
C            0.51857909151170        0.98190225540708       -0.99422454380419
O            1.29783566446261        1.00989270014250       -2.18954930715162
C            2.61616200748399        0.97617242062914       -2.22523635296088
C            3.58946568383692        0.97182563957928       -1.29952750288729
N            4.97020981942522        0.98059365343726       -1.84341203212344
C            5.67446620532615       -0.30192367938919       -1.63162259324558
C            5.76581738575669        2.12221077405574       -1.34712393733646
C            3.51160612605331        1.00307345243837        0.19675508267168
H           -0.24395519673363       -1.00672390515728       -1.29276227365363
H           -0.36237750345109       -0.42048551374014        0.36682918781262
H            1.19498368395557       -0.95751426604556       -0.27731841876575
H           -0.42841929438112        1.44005985798783       -1.28964319397212
H            0.97831157121689        1.59976763888598       -0.21998738665859
H            2.91487419857482        0.96838885844900       -3.27371662905093
H            4.87327896873071        1.09947045827532       -2.85842637980052
H            6.64052392388949       -0.28432324902104       -2.13255202659679
H            5.83693132316731       -0.47378007001244       -0.57014744766012
H            5.07743946408957       -1.11844241537069       -2.03304787615761
H            5.95451873314806        2.01430590199342       -0.28166061171813
H            6.71982776775027        2.16604137028391       -1.86901075290103
H            5.22306251973365        3.04964462573460       -1.51931135187516
H            3.44245807126411        2.02465180718506        0.57208703321003
H            2.64783252776069        0.45460519991172        0.55719832105773
H            4.38763671423671        0.54131801092752        0.64481224961067
