47
 energy: -48.837508320523 gnorm: 0.000412902708 xtb: 6.7.1 (edcfbbe)
C            0.58236416747977       -0.09635765226420       -0.63213751340226
C            0.44653738834607       -0.65271235511229        0.77995995433740
C            1.36921165108345        0.03379492810369        1.78867037094587
C            1.13894354830457        1.53786804968011        1.96244277664902
C           -0.29600980869134        1.94342038365807        2.32536892743742
C           -0.88037007182244        1.29011304835704        3.58327168437012
N           -0.76190193460991        2.04849898864340        4.86872149553742
C           -1.61156993656621        3.28123100309594        4.86981205473270
C           -3.13226450467772        3.08668630517416        4.88554275326847
C           -3.79909515999011        3.11590710449331        6.26748402867681
C           -3.53827217601539        4.37937743111327        7.09275387728876
C           -3.89862091885795        5.69447925337397        6.39937611558388
C           -5.37450974919408        5.79466167147154        6.03370631383695
C           -1.15772783872631        1.14830738672677        5.96739269037542
C            0.63576197284395        2.45783212692868        5.09911959616571
H            0.23686845075945        0.93276929071530       -0.69338604993980
H           -0.00867532772234       -0.68975351957023       -1.32436173286501
H            1.61974713104094       -0.13149428643879       -0.95511869396056
H           -0.59392034456773       -0.58054915757425        1.10556818858835
H            0.70381423142959       -1.71339613552939        0.76335898702923
H            1.28294393961193       -0.47871654647974        2.75127418599904
H            2.40064812219545       -0.09987177651946        1.45780873711387
H            1.85079458957522        1.90910196210802        2.70101571808647
H            1.37897501883099        2.03269691166080        1.02111584150154
H           -0.34682137449968        3.03103422245291        2.38620022864407
H           -0.93817488419949        1.65631193715781        1.49249760213143
H           -1.94349413655477        1.10490519981743        3.42679774757158
H           -0.39578629604598        0.32412967020384        3.73099796967052
H           -1.32692186805208        3.87032091212597        5.74257607122916
H           -1.33508418036554        3.85186090029384        3.98270671170337
H           -3.56103571760928        3.89849894452229        4.29766758712886
H           -3.41678015301693        2.16336254125261        4.37986481424289
H           -4.87326119439564        3.02974891565619        6.10222326811696
H           -3.50441654102186        2.25154021926693        6.86420085508492
H           -4.13104104397329        4.29812508055071        8.00556299899635
H           -2.49076590401984        4.42094799529402        7.40535353108781
H           -3.65261897431649        6.50858757303229        7.08364780889943
H           -3.28739964499300        5.83261768830672        5.50433040348632
H           -5.99447604977879        5.62528577309445        6.91044380060921
H           -5.59590560431280        6.78609601192800        5.64813833687512
H           -5.64965042296864        5.06960901908136        5.27159250760868
H           -0.44752424802818        0.32702073321950        6.05102451648436
H           -1.16917837234051        1.69502182073925        6.90830254306879
H           -2.14577596201334        0.73337194497751        5.78494490604853
H            1.29315955484354        1.59463185947887        5.01513852399745
H            0.93928499844668        3.20815820380489        4.37345972945074
H            0.74125557913569        2.87945841793850        6.09761723047316
