32
 energy: -41.999706631758 gnorm: 0.000325700083 xtb: 6.7.1 (edcfbbe)
C            2.16774293317137        1.83654596798723        0.04365679028421
C            1.04030440584663        0.85931074369507        0.02512134304409
C           -0.27709413692889        1.30187484563267        0.02836850061103
C           -1.34458052324474        0.41857460029321        0.02780160956820
C           -2.74976771537861        0.94098115660295        0.03812882233619
C           -1.06225743228594       -0.95027039755091        0.02674679570130
C            0.24860465281593       -1.43298718244067        0.02959004983381
C            1.28168944232961       -0.50840937352837        0.02625885927867
C            0.55382365440214       -2.89994273411418        0.02681814807051
N           -2.14373923968912       -1.87927300391098        0.02911620227068
C           -2.44493013150964       -2.75272383041345        1.02976466299266
C           -3.55941877054388       -3.43637120305141        0.64750969322259
N           -3.92090891364960       -2.97163237795967       -0.57961084314385
C           -3.04865324741136       -2.02864214985264       -0.93352140757836
C           -5.05030161068275       -3.40978738966432       -1.35618000024281
H            1.91887686612333        2.72802723930365       -0.52617742188612
H            2.36901639493124        2.14373056666989        1.07004915341219
H            3.07525657753440        1.39607461254572       -0.35937885503502
H           -0.47857622440951        2.36215510757320        0.03343496586995
H           -2.77105656182724        1.92879266538286        0.48944745313460
H           -3.12986021800558        1.03985808681559       -0.97858986007231
H           -3.42354302901438        0.29618959128012        0.59905973218344
H            2.29963612801866       -0.86685846952183        0.02222137759335
H            0.57435785542642       -3.28714833346908        1.04537116012949
H           -0.17726374026366       -3.47129279461175       -0.54174662091515
H            1.53500712402661       -3.07255830148986       -0.40617931223979
H           -1.86550282447363       -2.81543218748150        1.92747632662447
H           -4.10515846788747       -4.20334159079354        1.15782208317151
H           -3.06466608362135       -1.48029927549305       -1.85477876730327
H           -5.75206187798776       -2.58788000895392       -1.50332085956708
H           -4.72411721915731       -3.76785493227311       -2.33290811258489
H           -5.55779806665384       -4.21763964720887       -0.83426166876406
