23
 energy: -31.604162404063 gnorm: 0.000156047171 xtb: 6.7.1 (edcfbbe)
N            1.10738090608818       -0.66660161309075        0.15365259754147
C            2.17855248802407       -0.27045569578719        0.13716173170360
C            3.56307666149919        0.13298339142603        0.09742072160590
C            4.42121079483139       -0.70784266512705        1.05599155754708
C            4.10601771263260       -2.20872323426660        0.99798151039196
N            4.25119881559412       -2.75575075304925       -0.33375917889808
C            3.23539035077638       -3.01408634643607       -1.20314169645236
C            3.79583978049317       -3.49611744280287       -2.34714066829859
N            5.14481549273867       -3.52429743835923       -2.15867543252079
C            5.39743002094759       -3.07152424322128       -0.93465126063495
C            6.10905811923462       -3.98078172254756       -3.12309399865337
H            3.91126801041232        0.03410874861786       -0.93577296852682
H            3.63008670627269        1.18802609540498        0.37173749343082
H            5.47464749281872       -0.53346289709143        0.83104239095889
H            4.24007815489113       -0.38517426875786        2.08181203918080
H            4.77664570047167       -2.74429962443145        1.67405155268437
H            3.07549052899228       -2.38049871829584        1.31585399922541
H            2.20691528881776       -2.83641860694983       -0.95801620665540
H            3.33372696393198       -3.81563269446860       -3.25893465910862
H            6.37210427649050       -2.98463507043744       -0.49428483632929
H            6.00002954789554       -3.42262714741370       -4.05342896170048
H            7.11647834629327       -3.84077337116776       -2.73796260475804
H            5.95332783985189       -5.03910468174707       -3.33659312173137
