47
 energy: -70.110629682154 gnorm: 0.000652751493 xtb: 6.7.1 (edcfbbe)
C            0.68852984653705       -0.29903632420408        1.93872915965969
C            0.43668321134068        0.97183176677743        2.74057807862190
C            1.30044941695248        2.13313706686198        2.25901251992220
C            1.19934270239658        3.36986013781012        3.14985530189007
O            0.91319545971238        3.42791185704903        4.30270238026967
O            1.44841055672665        4.47252227330326        2.39686833592756
C            1.75288594703856        4.08394996404428        1.06552085687482
C            1.02757591290039        2.74717874268038        0.87638990235956
C           -0.48936995125343        2.94332523205193        0.65665539425863
C           -0.80458577357944        3.93992967114277       -0.39879865771581
C           -0.78119736518608        3.81838839472567       -1.75935536107772
N           -1.12442693186709        5.02541534457808       -2.29471238080023
C           -1.37637535865021        5.86114049086116       -1.28893703194102
N           -1.17823471114493        5.23510988716353       -0.13164019914774
C           -1.37334816026948        5.81794641711586        1.17134117093415
C           -1.42962866255759        5.30291739853270       -3.66697153135720
C           -2.94088878302925        5.67113039842503       -3.76195257841819
O           -3.54597132779909        5.85905415267844       -2.73179664476891
C           -3.51665530001016        5.78500285878140       -5.09691774147776
C           -4.88959698097535        6.05423569740058       -5.18022732497187
C           -5.50461417511596        6.18779519619078       -6.40783802743948
C           -4.75981775296059        6.05809822554865       -7.57054999694304
C           -3.39827797446858        5.79558264024954       -7.50064102511844
C           -2.77440831047294        5.65756522474755       -6.27677321010702
H            0.43461526573615       -0.16237617336563        0.88959951307683
H            0.08481972267003       -1.11210049948605        2.33097722417341
H            1.73335711212165       -0.59202597153296        2.00301695685255
H           -0.62083828109399        1.23461435460539        2.70211206693220
H            0.68396655932404        0.79798637398948        3.78899548335774
H            2.34998535998352        1.81412625197991        2.29443847578114
H            2.83656364591284        3.95375096400205        0.96530172301167
H            1.43774813011744        4.88364786100892        0.39449666005588
H            1.45770147550884        2.17391808438883        0.05618003656991
H           -0.92485591844245        1.98293795890389        0.37910535275530
H           -0.94271176989149        3.26470693275797        1.59495195636132
H           -0.54813056791604        2.96668361564773       -2.36464738174734
H           -1.67523645812702        6.88528477840939       -1.39249582322492
H           -0.48487221348997        5.69351455311877        1.79229198617572
H           -1.58402130281450        6.87877267219849        1.06125533528132
H           -2.22041980817527        5.34576692332396        1.67102955890067
H           -0.84937297237200        6.15722130384640       -4.02724124065797
H           -1.20434773038340        4.42499982868597       -4.27180709809314
H           -5.45091291117864        6.15309679106031       -4.26350251617766
H           -6.56189454746669        6.39452307310572       -6.46107551514788
H           -5.23740121789138        6.16314407218150       -8.53244715362768
H           -2.82232795029066        5.69934319787000       -8.40790225842481
H           -1.71383915612710        5.46246033888818       -6.24964473161734
