49
 energy: -55.059134171166 gnorm: 0.000139307155 xtb: 6.7.1 (edcfbbe)
C            1.73624509238695        0.94291885310277        1.75933056259787
C            0.52100214506974        1.85365358825512        1.78355892426660
N            0.21160413102915        2.55612425963376        0.49588954120405
C           -0.14093071710810        1.55830309109411       -0.56307477635479
O           -1.14075272655653        0.74830437472161       -0.06816961891496
C           -1.91077797390622        0.02845406195550       -1.06642483965488
C           -2.31057175968126       -1.31236923019143       -0.44811948906057
C           -3.47176547746480       -1.24818543130933        0.54640941949709
C           -3.06411269919825       -0.62221978304399        1.87781199148698
C           -4.65213153542131       -0.52447575059805       -0.10165198939193
C           -4.26727009714949        0.86603041976571       -0.59171588501745
C           -3.07464681046026        0.90350386479208       -1.56180566515107
C           -3.45371602273550        0.66749910658472       -3.04511914633828
C           -2.45259656853361        1.36968824921588       -3.96714028046404
C           -3.59260761424534       -0.78842206323026       -3.48018941531755
C           -0.95893130055137        3.42666442654316        0.72248021438710
C            1.34863081242205        3.37404113103456        0.04506697285579
H            1.62505625902005        0.13257369140805        1.04536641494319
H            1.82710735082147        0.49329875067583        2.74512351613396
H            2.65993628360924        1.47907424573279        1.56121118021288
H           -0.36122545475774        1.26098177897164        2.03097739632604
H            0.65933478586329        2.62455438859464        2.54368488777250
H           -0.45927657235697        2.11288642755088       -1.45966962914071
H            0.76651944903928        0.98493457141466       -0.81158617713894
H           -1.23030604669468       -0.17876386162213       -1.90269578161617
H           -1.42913722989025       -1.72935201017830        0.04332264569269
H           -2.58672213450203       -1.98245031286897       -1.26053156859326
H           -3.77767985684468       -2.27922666215732        0.75309313950335
H           -2.71146541852732        0.39530798358633        1.74159889840582
H           -3.91084394657732       -0.60853959994191        2.55949428540033
H           -2.26736973782926       -1.20339553538353        2.33640967711265
H           -5.02648704723400       -1.12227444119518       -0.93204178552760
H           -5.46407481072710       -0.42933646383044        0.62117568483212
H           -4.02434903548005        1.47951502550151        0.27896929662612
H           -5.12800659837223        1.32946557022394       -1.07633168889481
H           -2.71227629385481        1.94166913071580       -1.53712693944312
H           -4.42504339862556        1.15136237113994       -3.19183031670249
H           -1.45427855598912        0.94718500131944       -3.86223727306540
H           -2.75505562848514        1.24790687342259       -5.00335859639383
H           -2.40548670053081        2.43710630087589       -3.75749776966114
H           -4.30437977146175       -1.32628160658204       -2.86359870982292
H           -3.95451316451008       -0.81909247892901       -4.50528908532036
H           -2.63623343813638       -1.30490211973794       -3.45254223399371
H           -0.75935465270410        4.12377495142995        1.53322874898890
H           -1.18568113987149        3.99157903058283       -0.18024949015579
H           -1.81892482391799        2.81035858684127        0.97910606368751
H            1.63639646460299        4.06896520318839        0.83207032332151
H            2.20025322441166        2.74402168100272       -0.20077319666059
H            1.07253676264790        3.94247035990407       -0.84165843746721
