41
 energy: -51.500016052503 gnorm: 0.000482752775 xtb: 6.7.1 (edcfbbe)
C            1.34727746314510        0.62596669655699       -0.75937446681384
C            1.02186458532729       -0.20813513899800       -1.99301519862257
C            1.26996340531535       -1.70380241462897       -1.79542453544863
C            0.31856901031661       -2.36109479005732       -0.78756593572317
N           -1.04536082929646       -2.31335358649509       -1.25899330399813
C           -1.60926503317239       -3.17849930088046       -2.14688988471008
C           -2.87302730005135       -2.73763223024311       -2.39788984434269
N           -3.05765856561639       -1.60605333259070       -1.66369794382481
C           -1.93960323048009       -1.36693944422671       -0.98649067264688
C           -4.24814152461457       -0.81526362273878       -1.62999677477563
C           -5.22217085214623       -1.10483410276860       -0.67332532767357
C           -5.02257780527833       -2.21605333996459        0.31126047406549
C           -6.37239147482932       -0.33397893127946       -0.66987115803228
C           -6.56317953008535        0.69701605583741       -1.58417451060993
C           -5.56904321705563        0.95594206580585       -2.51840754382144
C           -4.40022360275233        0.21087805533512       -2.56118843019650
C           -3.32825140481099        0.50055058161299       -3.56700390346185
C           -7.81501261465492        1.50937593486071       -1.54432735217124
H            0.69810291647919        0.38849554096194        0.08074683392840
H            1.22911540965043        1.68267952460318       -0.98288652245066
H            2.37639710692593        0.46022354044422       -0.45206664682311
H           -0.01527875019071       -0.03734283379675       -2.29629043812430
H            1.65359388024841        0.12850880684118       -2.81568943509145
H            1.17835998157383       -2.21643232547882       -2.75507970636163
H            2.28746459896674       -1.85281286273379       -1.43414729247668
H            0.59679887790207       -3.40731333647520       -0.64677443731214
H            0.37369723957913       -1.84989355182824        0.17413457171678
H           -1.08896690524624       -4.03355215775440       -2.52707540669221
H           -3.63788520089110       -3.13908539615413       -3.03075045250316
H           -1.79449802598830       -0.54158134956575       -0.31704504769145
H           -5.87640738660982       -2.28546104533080        0.97783203500520
H           -4.90943908363949       -3.17288934064744       -0.19802523897193
H           -4.13187916777114       -2.04782069330336        0.91665509435103
H           -7.14045664582328       -0.54042404478209        0.05967525906541
H           -5.70554801309463        1.75397151055511       -3.23190952606884
H           -3.66231860351690        1.26287852809156       -4.26379740653825
H           -2.42644395921965        0.86648585584959       -3.07508439906663
H           -3.06716721849322       -0.39145761203921       -4.13561981306150
H           -8.68903373384184        0.86160010155449       -1.52988927829712
H           -7.83854858244799        2.11263400445814       -0.63755321312907
H           -7.88184621381306        2.17286998139053       -2.40136322060344
