53
 energy: -70.122258036285 gnorm: 0.000411265825 xtb: 6.7.1 (edcfbbe)
C            1.21136471350049       -0.44151105581416        0.44823257607567
N            1.46596333388927        0.93606310574994        0.90310528624259
C            1.42838904941993        1.86920175340266       -0.27946983144544
C            0.12528389723227        1.86303532018261       -1.03848074782682
C           -0.87867956510532        2.77577279401784       -0.72656234801994
C           -2.06574713992851        2.78554384193680       -1.43717400271426
C           -2.26267619430500        1.88923508458209       -2.47345634287901
C           -1.26478734491349        0.98720376889548       -2.80049533792746
C           -0.07784490295318        0.97476069553373       -2.09022679522850
C            0.42488011760871        1.37187413664244        1.87693675264928
C            0.16848195659391        0.43936397521323        3.05719720942109
C           -0.97199946380316        0.97879415568315        3.93119435226381
C           -2.24440808036023        1.28393289959830        3.12761001901520
O           -2.35430510797043        0.33345409999203        2.08741906810604
C           -3.29080876889489        0.52531362039748        1.10140034342571
C           -4.27149224564573        1.53331618272673        1.13030930586077
C           -5.14469530080322        1.66391043370481        0.08596030300572
C           -5.08924474614524        0.80878379785787       -1.03074526804798
C           -4.10771768955622       -0.21708477879020       -1.05286217666366
C           -3.21709982124469       -0.33076088546999        0.02763394693037
C           -4.05216040743373       -1.08287966156088       -2.16606504793938
C           -4.92462045793700       -0.93505766001628       -3.20702726988383
C           -5.89305166513362        0.08253994311790       -3.18660550295174
C           -5.97487730686796        0.93486299992829       -2.12172953252690
C            2.80644081577193        1.00749822409092        1.50810405072797
H            0.18003224717980       -0.53453634176692        0.11281164670119
H            1.39225479433718       -1.14537593725655        1.25663627092661
H            1.87866699971181       -0.68604740895801       -0.37609064953880
H            1.63000662619240        2.87598525954807        0.09303360598747
H            2.24200243657075        1.57909720230640       -0.94787148665310
H           -0.72413186919529        3.50306222972521        0.05799648476347
H           -2.83419226980665        3.49925813909876       -1.18640293609514
H           -3.18394306952957        1.90192862499103       -3.03288841260832
H           -1.40805158316128        0.29612204053344       -3.61566720332695
H            0.70184237129077        0.28363295226275       -2.37536876731440
H            0.70860262754482        2.35982092579776        2.24704919746472
H           -0.50291299844995        1.45501213790729        1.31108504845053
H           -0.14300541755504       -0.54069184640003        2.70120663507217
H            1.05347510983166        0.32918553551070        3.68460537207983
H           -1.19309021351657        0.22288110487695        4.68379845251409
H           -0.66487923730313        1.88813377342444        4.44842310881301
H           -3.11622954466814        1.23755777327907        3.79077293205000
H           -2.19082717911639        2.29739037228425        2.70519885146047
H           -4.35266957377179        2.19458722247921        1.97840329731049
H           -5.90064849475660        2.43481190204158        0.11361671108665
H           -2.47341152127746       -1.11419158346442        0.02547519445085
H           -3.31033750342154       -1.86832272852219       -2.17628780750941
H           -4.88006561344945       -1.60327394455390       -4.05383282191136
H           -6.57445492935561        0.18088292029119       -4.01781845477722
H           -6.72042253317901        1.71620084509351       -2.09751983073986
H            2.86377050542908        0.35032498259652        2.37268317395199
H            3.56177126588334        0.69822543517561        0.78770328787802
H            3.02406089255298        2.02541162008995        1.82646608983047
