27
 energy: -31.218334703303 gnorm: 0.000834152841 xtb: 6.7.1 (edcfbbe)
C            0.98985229562039        0.15066151532716        0.01833226387608
C           -0.12148821350417       -0.79552571346738        0.45719331121919
C            0.14858058930457       -1.47560755458980        1.80360436631505
C            0.33188329413329       -0.54132302666839        2.99738492565687
N           -0.93846629287566       -0.01401753852789        3.59474677000749
C           -1.81202221155828        0.70569428491829        2.65166460166033
C           -3.03784787625484        0.17434985241407        2.69175990884379
N           -3.14354689735349       -0.81605750632679        3.61347224987297
C           -1.83567108317524       -1.05495724018029        4.19023438698293
C           -4.13368100500388       -1.85920572762394        3.61938185302055
H            1.02567675084206        1.05253513749615        0.62523540543147
H            0.82533981629357        0.45673585978965       -1.01057110295677
H            1.95706621666711       -0.34261171395443        0.07215826713786
H           -1.07257717311195       -0.26294664442634        0.48094264337222
H           -0.21316780787267       -1.58861437940943       -0.28606327330518
H           -0.64524228299902       -2.19811874571159        2.00039266853597
H            1.07743204127843       -2.04186950938738        1.71250586953363
H            0.86163623737791       -1.06403100493720        3.79710549123746
H            0.92974735396476        0.31902450384783        2.69349847185283
H           -0.64759939584984        0.63788405774486        4.33028382374496
H           -1.42869853815526        1.55005433420634        2.12202613266753
H           -3.88961620760535        0.47479651433965        2.11225427494487
H           -1.87103785512942       -0.95808399097308        5.28155603845122
H           -1.46784372665991       -2.05991094922119        3.94093310899665
H           -4.32178862457265       -2.17702793053510        4.64483878930438
H           -5.05854505827980       -1.47050013553437        3.20141382049840
H           -3.81617434551878       -2.72692674860919        3.03193493309811
