51
 energy: -74.793987849469 gnorm: 0.000262438628 xtb: 6.7.1 (edcfbbe)
C            2.49641508699252        0.41227859294707       -0.68717874877651
C            1.02215353769128        0.30195341893963       -0.49130665861481
C            0.42516139244145       -0.94954435691661       -0.33829059492322
C           -0.93563654863771       -1.06447056750983       -0.17327697418953
C           -1.75365767766637        0.07290450027085       -0.14844808035582
C           -1.15821432631405        1.32646144213461       -0.30400015647199
C            0.20810922121850        1.43140504171646       -0.47104322228962
C           -3.19324409563020       -0.14272387971290        0.01328887443619
O           -3.71784272020568       -1.22777461729167       -0.03476303155786
C           -4.09610828433332        1.10389268617064        0.20215559158118
N           -3.73397319001942        1.93318913800771        1.32379596854837
C           -3.75400843278954        3.26337039664018        1.35373108284204
N           -3.43709259975329        3.68484980654177        2.57653206081069
C           -3.20293586890548        2.58545831431197        3.36729559518958
C           -3.38126618413256        1.47715680758545        2.56805138492690
C           -3.27509854666007        0.04418849475001        2.86978246312342
C           -2.02883750359719       -0.57259624738141        2.91864322295466
C           -1.94221326318198       -1.93186050537344        3.15537327740213
C           -3.09231270724621       -2.67974337731580        3.34296445888162
C           -4.33335123049616       -2.06663634255129        3.30277567737394
C           -4.42854547825124       -0.70800169393381        3.06759738296716
C           -2.90146467244517        2.65127623973988        4.79599447974903
C           -3.69095064059878        3.42908533232410        5.64342403215679
C           -3.42526914522937        3.46704791600210        6.99953007558042
C           -2.37303694271921        2.73469132185296        7.52413219170826
C           -1.59074203659447        1.95456541961747        6.68834355549421
C           -1.85198332676621        1.90805844274061        5.33162609223003
C           -3.32281272310481        5.06619737643617        2.96673009465515
H            3.02546098854768       -0.04670596603542        0.14682850311271
H            2.79234876919848       -0.11959739959445       -1.59043670186465
H            2.80988406123161        1.44872525305766       -0.77516408914134
H            1.04139062433380       -1.83567415391352       -0.35885628774097
H           -1.40413021473901       -2.02990037777452       -0.05853444454736
H           -1.75217165448028        2.22804279877073       -0.32554418722847
H            0.65372006858222        2.40683642345598       -0.60107011712395
H           -4.07230615614294        1.70211694626523       -0.71185581388319
H           -5.11377174945517        0.72404192781053        0.34416475830199
H           -3.99358775151076        3.90159883204198        0.52560881118375
H           -1.13358309251784        0.00690126301992        2.74332982029970
H           -0.97393632450494       -2.40710453389528        3.18405199550763
H           -3.02190082128313       -3.74205517595218        3.51618107943289
H           -5.23032998255067       -2.64784563924711        3.44706596988602
H           -5.39565047680733       -0.22809221304843        3.03768577766089
H           -4.53391844293902        3.97705241509399        5.24985160049364
H           -4.04486572914180        4.06690753458626        7.64773587020068
H           -2.16719200251451        2.76794767336654        8.58233812008167
H           -0.77338504010553        1.37896151626822        7.09355095815199
H           -1.23764072639580        1.30496772721133        4.68322200319096
H           -2.87966976519722        5.64237473682599        2.15565860806031
H           -4.30385104536933        5.48568442750987        3.19554634735935
H           -2.69221462930125        5.14076688344248        3.85077132317284
