23
 energy: -31.933235212648 gnorm: 0.000757759782 xtb: 6.7.1 (edcfbbe)
O            0.96788903259699        0.08676103685927       -0.02484125991358
C            0.85770878333067       -1.02578808403439       -0.86570870720960
C            1.09261081926091       -0.61666834955381       -2.28295447679365
C            1.36259940938208        0.71498214057384       -2.60618927317486
C            1.57141675617969        1.07199792239553       -3.91670400196962
N            1.52967420762510        0.16459613948426       -4.90058970600761
C            1.27003769394262       -1.11968485953677       -4.61946510287652
C            1.04995391279548       -1.54118402774570       -3.32992426671809
C            1.67715099364332        0.59077412746975       -6.28541809444866
C            0.33246856389025        0.97500097410579       -6.85093074207463
C            0.07187907784213        2.15719740683004       -7.37261834325451
H            0.80935416478230       -0.17294041732030        0.88888507729062
H            1.59104528911641       -1.80632004977179       -0.60300668215549
H           -0.14343745692752       -1.48422277038477       -0.79960267650242
H            1.40336225698235        1.44863277271915       -1.81707406048664
H            1.77438815911028        2.09475303717759       -4.19779831596932
H            1.24402334837248       -1.81125546508237       -5.44886280342093
H            0.84695132724247       -2.58325790935154       -3.13864195763871
H            2.36031671797674        1.44054208213926       -6.33157887573566
H            2.10031755769874       -0.23433510195223       -6.86463503085355
H           -0.42008851078057        0.19992238208082       -6.81202283811227
H           -0.89361658039593        2.38570013042762       -7.78758174775863
H            0.81184447633325        2.93817688247054       -7.42917611421566
