11
 energy: -22.782175883649 gnorm: 0.000544060964 xtb: 6.7.1 (edcfbbe)
N            1.24052581590506       -0.38482087248138       -0.28420397051826
N            2.16733517311838        0.09133075556392        0.09541658027856
N            3.17566800647269        0.71585764113429        0.30367526162503
C            3.99455470960545        0.78658477418949        1.32976997357578
N            3.92269951797488        0.15591190092095        2.46982936596478
N            5.03025887458679        0.57101308815634        3.23024315227601
C            5.74102127397727        1.55146363380568        2.30864550326432
N            5.11547517896367        1.64222444336293        1.23885535216967
H            5.61781430010098       -0.24097733261393        3.49280716778420
H            4.72089950933230        1.00105166103974        4.12085550191496
H            6.64239763996242        2.05138030692218        2.60615611166497
