41
 energy: -48.220408822709 gnorm: 0.000191496665 xtb: 6.7.1 (edcfbbe)
C            1.21985820668338        0.52485930857003        0.06212805507609
C            0.46534785756488        1.21604200615657       -1.06699346846560
C            0.91484959242314        0.76870486374264       -2.45961599474770
C            0.76122701727204       -0.72901775376042       -2.73943821595965
C           -0.65847974494874       -1.27475803202032       -2.58350907258110
C           -1.65729331682219       -0.71152734700551       -3.60133450375369
N           -1.33350852785402       -1.13059775429983       -4.95204665717335
C           -0.64206372354895       -0.33885884665810       -5.78518789619920
C           -0.31086205313556       -0.74493571178818       -7.04293688955777
C           -0.70159590619321       -2.01521179216615       -7.54759320512821
C           -1.35083890204941       -2.87539444650725       -6.60155405744589
C           -1.63734085497495       -2.37870559850703       -5.35820728175330
C           -1.64634849443898       -4.32707712673761       -6.83951471474928
N           -0.42490201721253       -2.34556196065378       -8.81452576483037
C           -1.19103095601478       -3.28116676169839       -9.60914606733667
C            0.54538365602696       -1.59740081442834       -9.58650140130831
H            0.98436063668125       -0.53551671605938        0.10949871625819
H            0.95052492003970        0.97038103926619        1.01604181725897
H            2.29303727440526        0.63555609728845       -0.07375748666142
H           -0.60752756572403        1.05246093247407       -0.94487200520048
H            0.63449907858488        2.29222444015372       -0.99444177907173
H            0.36577083461925        1.35143939416702       -3.20393911003420
H            1.97126880806137        1.01792274296158       -2.57793476505271
H            1.12452396861272       -0.93720391732378       -3.75053294823347
H            1.40579040872857       -1.27774791634932       -2.05292368325925
H           -0.63066817639416       -2.36266613247715       -2.67812596737053
H           -1.03177912749970       -1.04216323968625       -1.58730916286675
H           -2.66257247660679       -1.06532850228336       -3.36135119622107
H           -1.65622344470117        0.37798962022987       -3.56347022843251
H           -0.37944919579385        0.64500678786282       -5.42957149594048
H            0.21854564473491       -0.05142737593968       -7.67160982438805
H           -2.12651582304306       -3.00681304435620       -4.62867109761934
H           -2.62808643995964       -4.47645764385917       -7.28588551082461
H           -0.89627159464592       -4.78023742870981       -7.47890279335282
H           -1.64384036766177       -4.85667206923013       -5.88989343997948
H           -2.14053025675142       -3.51146945235998       -9.14052726226703
H           -1.40169212897020       -2.81749683581263      -10.57441137237144
H           -0.63415640825938       -4.20238002671211       -9.79195247372394
H            0.10876873152334       -0.69768136043825      -10.02846780112925
H            1.40019051469295       -1.32147892956008       -8.97175829566901
H            0.90415035254789       -2.23448269547925      -10.39284369793804
