16
 energy: -20.751037941126 gnorm: 0.000186285468 xtb: 6.7.1 (edcfbbe)
C            1.16161368164329       -0.16788214384537        0.09042857466764
C            0.22389978028340       -0.56375275780716        1.22706011237764
N            0.68979679479174       -0.02178995331181        2.48662234118350
C            0.40277609761543        1.17649732968422        2.97721238929919
N            1.06266171719803        1.34187505501278        4.12200045205740
C            1.79436265342771        0.22207290160593        4.37067837755078
C            1.56035986837426       -0.63413724997047        3.33756942798204
H            1.19300935232644        0.91190410016383       -0.03036426141697
H            0.80393050852008       -0.60470586048352       -0.83674838017153
H            2.16970668821271       -0.53101330591164        0.27253026832750
H           -0.78205137480060       -0.18559647206506        1.03569405517093
H            0.18134034239991       -1.65042632506177        1.31926667115040
H           -0.25772978873906        1.89232636700681        2.52631038312015
H            1.02418324938383        2.16178319205926        4.71326172743359
H            2.41223328305062        0.10824004252927        5.23801019219977
H            1.94314714631217       -1.61872491960533        3.15995766906802
