34
 energy: -42.469643142299 gnorm: 0.000389311326 xtb: 6.7.1 (edcfbbe)
C           -0.08867511914273        0.99584040731004        0.84080031374704
C            0.26533061685570       -0.01705242891393       -0.24089961110061
C            1.10590443232618       -1.18556059730019        0.27895496172850
C            0.43203961918911       -2.02626408014591        1.36775634312483
C           -0.91239399470530       -2.64876610372563        0.98052509397809
C           -0.90450353119655       -3.56805182648516       -0.23965276371040
O           -0.27462062851650       -4.83865795164198        0.01169746422805
C            1.04927130476116       -4.94576474275963       -0.28084784004911
N            1.26258891605786       -5.28220309606796       -1.72769206695536
C            2.39646917134822       -4.93005654917159       -2.34201386936664
C            2.61254487667849       -5.25435813970464       -3.66512862801196
C            1.63247843567146       -5.95212288855530       -4.36212367378818
C            0.46431029397532       -6.30767831450104       -3.70049699638526
C            0.31046836971302       -5.95972872389326       -2.37408043581093
H           -0.77280533120682        0.57363954970523        1.57178661586969
H           -0.56800416712993        1.86313899771962        0.39484107539311
H            0.80762455838076        1.33042054355210        1.35730233662621
H           -0.64948579271531       -0.39158243497875       -0.70515252897247
H            0.84076006735132        0.48795031324095       -1.02037976106653
H            1.38319778999137       -1.81443568187164       -0.57503993431965
H            2.03403247538306       -0.78610325054411        0.69401010897609
H            1.11988233255210       -2.81013676005762        1.69684833507513
H            0.25688364887060       -1.38836604599116        2.23400649348729
H           -1.28601660237841       -3.22476513694245        1.82856180639823
H           -1.63169115420399       -1.85489354653138        0.77929282526769
H           -1.93588496597261       -3.82277033182767       -0.49434424447274
H           -0.44110948336458       -3.08286249702126       -1.10449431941866
H            1.63034470006841       -4.03850975877140       -0.07814272720395
H            1.45467767071927       -5.78400438187011        0.30111846334206
H            3.12806719445002       -4.38569994733513       -1.76237242184893
H            3.53340651429276       -4.95988454309656       -4.14263543280355
H            1.77800850445939       -6.21208741823082       -5.39909183123878
H           -0.31967178610487       -6.85113768992624       -4.20314021871099
H           -0.57199893646023       -6.20445494367580       -1.79805293200321
