21
 energy: -24.415392830967 gnorm: 0.000693031069 xtb: 6.7.1 (edcfbbe)
C            1.08392669330350        0.47007068049022        0.87008537448243
O            0.52185549057243       -0.62449166451242        0.16070414371616
C            1.08683731604976       -1.85043849907630        0.48626996083326
N            0.41587114299807       -2.89252502091303       -0.34217565585966
C            0.62471676296701       -2.58019785890677       -1.76999089682742
C            0.98367539121047       -4.21527671100903       -0.03090530985151
C           -1.03047829723153       -2.88527303573091       -0.04647018640266
H            0.55602659832669        1.35184499025210        0.51800748797821
H            2.15131714616190        0.56984956915036        0.65501020389717
H            0.93629846878590        0.35563781036279        1.94744940866770
H            2.16779468963578       -1.86610809992905        0.26890735020418
H            0.93701253793521       -2.09345063828303        1.55147643603224
H            1.68511103611904       -2.62287318951793       -2.01223651697766
H            0.09028762319873       -3.29651584164194       -2.39009871854169
H            0.25595823958791       -1.57674909725621       -1.97512818635985
H            0.82887738889998       -4.45896537315368        1.01901709944683
H            0.49884083975809       -4.97587146568418       -0.64049891098241
H            2.05216892574154       -4.22995154663082       -0.23996321735566
H           -1.20089061534297       -3.13961225504538        0.99809663553421
H           -1.43094411933422       -1.89116290550205       -0.23721156975081
H           -1.54287325934343       -3.60966984746266       -0.67583493188299
