35
 energy: -52.247229407247 gnorm: 0.000897203376 xtb: 6.7.1 (edcfbbe)
C           -1.37345863248131        2.41737107972103       -2.99195782725148
C           -0.81131181974298        1.03881031093069       -3.31768575491106
O            0.10258963594752        0.57854471534666       -2.33028412486884
C            1.35907743861668        1.05704105703308       -2.28385899481226
C            1.93720452772762        1.94031621328172       -3.20076974838333
C            3.25585508237921        2.33675273633560       -3.05092288486512
C            4.01937790177290        1.87544331530078       -1.99952851430908
C            3.45471333600459        0.99518787330043       -1.06618702828673
C            2.12918948952577        0.59164658359418       -1.21684377861065
C            4.30372454804482        0.53985973723030        0.02651182462764
O            5.48863318403011        0.76005384117787        0.12554795111886
C            3.62007517165381       -0.30012394796359        1.14784716826167
N            4.53078822840118       -0.39172257796128        2.24917118806918
C            4.38655811645921        0.18068952565377        3.47841581677322
C            5.57166285686312        0.04002474451922        4.13074892487442
N            6.42758188267400       -0.60153374477655        3.28594811001010
C            5.78062992545065       -0.84496105666567        2.15011309640690
C            7.79245948471362       -0.94023617909047        3.58393898045760
H           -1.86429713005092        2.39686171245888       -2.02224504111645
H           -2.10174112060789        2.69926463153858       -3.74643217021752
H           -0.58803005224510        3.16917497963463       -2.96400359969762
H           -1.61291534094712        0.29650825784370       -3.30158445232857
H           -0.34588292301514        1.02228270412614       -4.30926603057090
H            1.37095293665196        2.31814185362283       -4.03649620212750
H            3.68680768536090        3.01601421143556       -3.76969818277313
H            5.04542461147399        2.18182384340016       -1.87474545034864
H            1.65361591399602       -0.10009331841118       -0.54117332111187
H            2.69652714906125        0.17316109122431        1.47784376602761
H            3.40099637402096       -1.29080926141838        0.74105095952243
H            3.47184872870972        0.63433670671669        3.80047186635650
H            5.85747939249151        0.34931795657026        5.11531603314102
H            6.19480821676741       -1.34354902844593        1.29608821389863
H            8.26336638009410       -1.37888438448254        2.70733209964780
H            8.34366686751816       -0.04470408433949        3.87214085568703
H            7.83291195274423       -1.65367209840216        4.40822625162065
