23
 energy: -31.955245833631 gnorm: 0.000771423641 xtb: 6.7.1 (edcfbbe)
O            2.56169778706964        0.47400828089323        2.01530038913792
C            2.87407435070600       -0.10105379473958        1.01433694213324
C            3.74135242168075        0.64773144055842       -0.05328038771049
N            4.36821413559586        1.77629581275592        0.57872391017333
C            3.57774026002696        2.74285630657780        1.06908016197875
C            4.10085159230798        3.76986192992886        1.82988426147394
C            5.46284775312303        3.79983484487581        2.08928425422629
C            6.26516708524724        2.78992295628063        1.56703661387131
C            5.68661406326736        1.78416757931071        0.82666131823303
C            2.51218078970671       -1.49795004296083        0.63211413675771
C            1.43775666868166       -2.08140218165515        1.54253256024448
H            4.48313709461476       -0.02177356304507       -0.48781895903378
H            3.05631342840119        0.97997355622137       -0.83875720627651
H            2.52566843933585        2.69741479643756        0.83370513026769
H            3.44327060237386        4.53288204723688        2.21429185033801
H            5.89367045969994        4.59088602942708        2.68234058658099
H            7.32906718143174        2.77789737733812        1.74119677194892
H            6.27392420728486        0.97446224097377        0.41920044257824
H            2.19286885619573       -1.51360384578554       -0.41306834856735
H            3.42241575182416       -2.10326512238453        0.69502586955095
H            0.51640819343709       -1.51125787644649        1.46004854446330
H            1.23547729967974       -3.11132911676959        1.26501443426322
H            1.76244157830606       -2.05518965502811        2.57931672336506
