44
 energy: -58.532222873169 gnorm: 0.000367847285 xtb: 6.7.1 (edcfbbe)
C            2.20065258089035       -1.85613941428215       -0.53825404060312
C            1.21078285697056       -0.69846188079906       -0.48037640915332
C            0.90258427461862       -0.09938759827882       -1.85300922085439
C            0.14084371503605       -1.05072982639215       -2.78364564967152
N           -1.16976503308959       -1.35189890654455       -2.25898284745647
C           -2.25800126461189       -0.54282940723284       -2.33828721723931
C           -3.30038258146086       -1.15462744118113       -1.69060192283477
N           -2.79260407845236       -2.32744018214391       -1.18773888624916
C           -1.51475340099204       -2.41996866350970       -1.55450764119006
C           -3.45152375544859       -3.32767267649152       -0.38891325243141
C           -4.70203185904509       -0.65382618844111       -1.57309135703743
C           -5.59387998087384       -0.91570257431515       -2.81693235124777
C           -4.80940003382252       -0.80187165582930       -4.12644969439767
O           -4.12107273810495       -2.04799532981850       -4.22705406117328
C           -4.75833849399429       -2.98417210173036       -3.49449765605781
O           -4.28900773765190       -4.06502790583266       -3.28494662060566
C           -6.04709444519283       -2.37701860644488       -2.96231197861708
C           -6.73663340407457       -3.06340131991538       -1.78811683415606
C           -7.29724178314402       -4.42163864339399       -2.19773297673900
H            1.79683688735648       -2.71475674856402       -1.06943857243704
H            2.45631089783536       -2.17712856856236        0.46751903152611
H            3.11560803803128       -1.54626069478421       -1.03541653133113
H            0.28540606140307       -1.02261400238926        0.00435245925274
H            1.63666981052977        0.09131893321226        0.13932637768454
H            0.32193157197248        0.81664594592576       -1.72700005479702
H            1.83819382745580        0.16510155120327       -2.34571935473507
H            0.01808526786286       -0.58848477593961       -3.76518865309456
H            0.68973734080950       -1.98503621057892       -2.90333499223041
H           -2.22108445795824        0.40364678597746       -2.83746076083700
H           -0.87215433080112       -3.24576300054416       -1.32001923860663
H           -2.70628607571273       -3.86700500540478        0.19269829392696
H           -4.15671978617540       -2.85938269893474        0.29514809906923
H           -3.96964202522371       -4.04114737434378       -1.03439295175628
H           -5.19370804260282       -1.07904631080172       -0.69876483673429
H           -4.64829193540471        0.42769229374542       -1.43274296633184
H           -6.43682058534222       -0.22663259286784       -2.78325670450920
H           -5.48414301640477       -0.68922911287932       -4.98144258100043
H           -4.06891053079717       -0.00464148692058       -4.15515695023933
H           -6.74902271035666       -2.41136979284705       -3.80770465013525
H           -6.05607774438592       -3.20248830715147       -0.95115254968129
H           -7.55330946423052       -2.41912654525340       -1.45363743135428
H           -6.50261870159828       -5.06696754911058       -2.56136654632742
H           -7.77216856365117       -4.90182139586358       -1.34694478157716
H           -8.03979457010441       -4.31111301386102       -2.98376253604659
