28
 energy: -32.896803326400 gnorm: 0.000787919510 xtb: 6.7.1 (edcfbbe)
C            1.21877194517806       -0.45718848166903        0.41424443398585
C            0.31454963256526        0.37343262889179        1.32126822682236
C            0.87269466893672        1.76395556928003        1.65376034229544
N            0.34447347396400        2.91319884458116        0.84827420294654
C            0.55668389006329        2.65510519645566       -0.58642021149824
C           -1.09981494750389        3.12895414531048        1.14922684371360
C           -1.62237874806019        4.45799483649634        0.59199007896021
O           -0.87437513988094        5.53627152790751        1.08531506356360
C            0.47380157717056        5.42717242225127        0.71696382233131
C            1.08954163556299        4.13702111515974        1.27106009400090
H            1.32586927491474       -0.03282421678738       -0.57954410820534
H            0.80033201328891       -1.45350494259080        0.30510308240070
H            2.20699745104056       -0.56073728452547        0.85435884666304
H           -0.68448387967931        0.43780837262623        0.89100837302242
H            0.20872247574492       -0.16523171391892        2.26380706086882
H            0.66732477984734        1.99573123983892        2.70038005183650
H            1.95716680074152        1.74795844204491        1.52238770524749
H            1.60908511536730        2.44506287446582       -0.76727169539065
H           -0.03759303996030        1.80238973376232       -0.90434840325381
H            0.26845710988574        3.51609661449806       -1.18336668887188
H           -1.21390691152564        3.14611396395988        2.23516226735932
H           -1.68668241568662        2.30590982774324        0.74382515378186
H           -2.64597532246300        4.61020943433057        0.93909206221884
H           -1.62674715197865        4.45616616482300       -0.50708816296822
H            0.58566856560652        5.49024254178635       -0.37463123499538
H            0.98467593233603        6.28279597199394        1.16248942982450
H            2.12870135137439        4.05152814391027        0.95203021160433
H            1.05467986314989        4.18878702737413        2.36136315173580
