99
 energy: -118.978062412551 gnorm: 0.000212034083 xtb: 6.7.1 (edcfbbe)
C           -0.25070658827709       -0.63723897083707       -1.23115387533093
C           -0.75406478699160        0.43658191777171       -0.64827121885592
C           -1.81218062624169        0.34508996755038        0.41188968197507
N           -1.34286586693413        0.79135505978627        1.76704804588916
C           -0.75826093471831        2.16978619117832        1.73272433620132
C           -1.52754380442971        3.27225785978277        0.99596417069638
O           -2.62881256766826        3.81044289960224        1.71342365020864
C           -3.87835322302593        3.50739141167139        1.27153923202970
O           -4.06425767024492        2.63185483427147        0.46688869422749
C           -4.90093028938925        4.38520978631352        1.91566697079239
C           -6.25733685075870        3.70003629854482        2.09426197126550
C           -6.22157827380889        2.49109326589560        3.03095414151726
C           -5.65607369562239        2.76528814259253        4.42740928317421
C           -6.34524351153713        3.90270737551421        5.18568565459299
C           -7.84614569920529        3.71349355268754        5.41143824441077
C           -8.22717228834482        2.48721535471262        6.24280853870351
C           -7.62392998357539        2.44504725997085        7.64863792991394
C           -7.94214180256280        3.65718087587928        8.52701731726540
C           -9.43182757723073        3.91523349012906        8.75763845520841
C          -10.13481251426247        2.77502255477700        9.48441268174945
C           -2.46007692459354        0.78070247424877        2.76133779314580
C           -3.39313525152952       -0.43327409739711        2.81406292158354
O           -2.83841127163940       -1.57711844841674        3.44606946976782
C           -2.49248664105536       -2.62942660835849        2.67036661614707
O           -2.44546199943008       -2.54265957600298        1.46838513651583
C           -2.16930629350740       -3.83624790301253        3.48932834253654
C           -3.45869100131274       -4.46184084255818        4.05232668407144
C           -4.47579673442958       -4.84817397383599        2.97763712252929
C           -3.95702442546054       -5.82148073964055        1.91672391492176
C           -3.41354681343456       -7.14335950134032        2.46219644932730
C           -4.41228013691920       -7.96153851353827        3.28354424984155
C           -5.69510277413107       -8.34718105212374        2.54440535668975
C           -5.48605473757943       -9.16445165653678        1.26798915991689
C           -4.73386896634024      -10.48334196199157        1.45830785157501
C           -5.38842670349680      -11.46611710027687        2.43042470902841
C           -6.77058799185968      -11.92560620351825        1.98198093655886
C           -0.26773251580942       -0.11832885635076        2.21035396312284
H           -0.55750121566893       -1.63197590702950       -0.95154504566444
H            0.47376145650103       -0.56406692265028       -2.02285462481413
H           -0.44823698895758        1.42284334518277       -0.96750127383887
H           -2.68749456998898        0.94284030245491        0.14096286022604
H           -2.10832332481983       -0.70335022088362        0.49429413918966
H           -0.60366620215587        2.49358013993508        2.76494903879483
H            0.21621918467353        2.09355052267399        1.24790419070356
H           -0.83083102064065        4.10674111892379        0.86855925688848
H           -1.87521429260613        2.94645966608372        0.01165355766719
H           -4.50149453107069        4.76213199759808        2.85672772269040
H           -5.02431254034289        5.24339641510612        1.24769746981281
H           -6.96460121004974        4.43711420801339        2.47189072680865
H           -6.61057719553585        3.36596570799270        1.11737423877008
H           -7.23974679458317        2.11371889763575        3.12855934368415
H           -5.63290162512998        1.69855420998493        2.55884114093282
H           -5.73891049125132        1.84787865777816        5.01387026469093
H           -4.58946808237705        3.00066148567446        4.35386001053203
H           -5.85066780995954        4.01142748658393        6.15239452520791
H           -6.19680971118546        4.84029392451406        4.64607882790295
H           -8.22507936141460        4.60857283822095        5.90686514296115
H           -8.35396293034907        3.64546983965722        4.44707237227183
H           -9.31510266230116        2.46066638044837        6.32211660194033
H           -7.92703845105676        1.57956161686847        5.71300584022056
H           -7.98491978762587        1.54218083613857        8.14457597539041
H           -6.53724300662495        2.35316058012738        7.57533280722269
H           -7.46297116975016        3.50356264474889        9.49743110158203
H           -7.49675530267582        4.55177607753226        8.08633029793367
H           -9.52664185737682        4.82469288198212        9.35579289407947
H           -9.93028210748745        4.10162394660415        7.80479809933808
H           -9.62012612369350        2.54175373830941       10.41408054037472
H          -11.15808758877219        3.05590205514950        9.72212473636235
H          -10.16579173059257        1.87712853908048        8.87227898019673
H           -2.01977796483068        0.91232942547427        3.75308847286502
H           -3.09998489360477        1.63503117051832        2.55071076759555
H           -4.23988795442627       -0.13996583254794        3.44295896708092
H           -3.76997696332748       -0.70572420063362        1.82413038580948
H           -1.64433412436252       -4.55466443153693        2.86165089055650
H           -1.53323520084603       -3.53974137345959        4.32452356094953
H           -3.17796140291340       -5.34345626460309        4.62775410850949
H           -3.92150035651696       -3.74889471330388        4.73799284388647
H           -5.34006987028583       -5.28763106241834        3.47739988953035
H           -4.82344688869901       -3.94446905830173        2.46837559730973
H           -4.77681202654554       -6.03140664437585        1.22836820637679
H           -3.17329635049766       -5.33407311886509        1.33229342149524
H           -3.07551777242261       -7.74191439336311        1.61472906392212
H           -2.53545094172619       -6.95188194173901        3.08403862500487
H           -3.90833720472488       -8.86957693086902        3.61925269058101
H           -4.68963264382364       -7.40280691176172        4.18065553831687
H           -6.32321694661267       -8.91506430755863        3.23314060615299
H           -6.24956701539998       -7.44261131367450        2.28367778842204
H           -6.46639398170963       -9.37337739440378        0.83583917158499
H           -4.93997216337126       -8.56252865037144        0.53800667552790
H           -4.64982142379543      -10.96638402243818        0.48136797617586
H           -3.71860467058871      -10.27516098664150        1.80292053668397
H           -4.73792038806906      -12.34010076570850        2.51544436485018
H           -5.45839433445248      -11.01752754940994        3.42296622151412
H           -6.72648111637134      -12.33785603877430        0.97620200900450
H           -7.14595286282207      -12.69654232432628        2.65098003019186
H           -7.47975550098175      -11.10175534146179        1.98604171885448
H           -0.64391672119482       -1.13337869099948        2.28845035954933
H            0.53888180530787       -0.11644595609176        1.47902744856996
H            0.12143666282422        0.19376804377418        3.17779571844776
