34
 energy: -51.437415589985 gnorm: 0.000698927737 xtb: 6.7.1 (edcfbbe)
O            0.33243689058622       -0.20721452240288        2.03818031586723
C            1.42578909257862       -0.12354159765941        1.54450530259373
C            2.48023399982403        0.78040641346602        2.02382396267039
C            3.54537709020867        1.21079447162397        1.22955500178266
C            4.49707703402126        2.06483425950027        1.75289173331049
C            4.40480894124759        2.49475814509841        3.06848154373506
C            3.34486386332152        2.08231516146093        3.86135086747165
C            2.38496356876632        1.23665113388574        3.34234449206586
C            1.79679657222166       -1.06230879504461        0.36210531734337
N            3.00531499325259       -1.78838897211372        0.64348274101001
C            4.12773222742431       -1.81067699332335       -0.06869163704958
N            5.05961637788909       -2.55314419196660        0.51970619513801
C            4.52408403219045       -3.05092900604304        1.68969473875464
C            3.20639644403604       -2.56222993608082        1.76983143453450
C            2.37565204039761       -2.88864355343023        2.83566756876744
C            2.91028964618758       -3.70734139022790        3.80872832708534
C            4.22132410203356       -4.18931692718410        3.73198091682482
C            5.05218663519501       -3.87469414416368        2.67686534304271
C            6.39115752462144       -2.80623557361330        0.03990155050469
H            3.60953701657422        0.92820562028342        0.18964530188562
H            5.30921038068559        2.40830063104072        1.13042181552005
H            5.15241477047379        3.16168113982955        3.46878248169371
H            3.26410435859500        2.42784789984172        4.87987587838207
H            1.54816650856724        0.91108285489840        3.94134136099856
H            0.96441692655769       -1.76162485496350        0.23336635891330
H            1.91326256084607       -0.48075868197891       -0.55384848499067
H            4.26277621868397       -1.30723373283583       -1.00796480064411
H            1.36398825046593       -2.52420950531720        2.90021284157530
H            2.30068859516305       -3.98749038317069        4.65277283370327
H            4.58886006441518       -4.82723394925199        4.51976433498448
H            6.05978292739200       -4.25177092414298        2.62023884857828
H            6.53637511024697       -2.32087412765574       -0.92231933302348
H            7.12329147440815       -2.41983161355572        0.75052779561707
H            6.54799376092206       -3.87961435480287       -0.07354294864639
