31
 energy: -36.070545477863 gnorm: 0.000199053680 xtb: 6.7.1 (edcfbbe)
C            0.20519140341639        0.05492326612898       -0.07608650590816
C            0.54128847812928        0.34855644467833       -1.52867424018418
N            1.48648196191455       -0.61016248275599       -2.18801373818541
C            0.88776038776321       -2.06286061481255       -2.10229661403717
C            1.62645181664589       -3.08728335755426       -2.97253053880843
C            1.00887295006061       -3.30848836083113       -4.35515200661033
C           -0.49407284259151       -3.50698115563744       -4.19610796869788
C           -1.07436856569488       -2.27698619541425       -3.51816403640468
O           -0.47345528769986       -2.02178156503551       -2.24366234473835
C            1.68866370365365       -0.15362842724909       -3.57411044028275
C            2.78907604935964       -0.57871253506282       -1.49966149280313
H           -0.33341088285218       -0.88162452284814        0.02829688436003
H           -0.45034444854920        0.84834807579576        0.27434069829904
H            1.08091850128188        0.05082391307580        0.56584196551411
H           -0.38458033742618        0.34380667803446       -2.10515637019444
H            0.99311014716107        1.33959164633995       -1.60491381169635
H            1.06037271991210       -2.31461880683425       -1.04825790588952
H            1.56043511586111       -4.03435654494759       -2.43145037290263
H            2.68472685021822       -2.84475000792949       -3.05237460624959
H            1.19790892736629       -2.46985780249061       -5.02646564325392
H            1.46261552805386       -4.19336781066680       -4.80042992555515
H           -0.97325949175180       -3.64469290376342       -5.16355586973103
H           -0.69110684966195       -4.38839341181030       -3.58467323951396
H           -0.97616298701570       -1.40088877415332       -4.17166926340644
H           -2.13088827752237       -2.41207635563900       -3.28256212130546
H            2.09588375766475        0.85721561274271       -3.57173368141953
H            2.39154272805026       -0.80202146593852       -4.09079484934270
H            0.74426819839521       -0.14047040268111       -4.11207848457305
H            3.14793068393105        0.44793627839465       -1.44355215420437
H            2.70396385706151       -0.97499720464186       -0.49107742607250
H            3.52449620485768       -1.16917120649252       -2.04126389620558
