38
 energy: -50.886237255968 gnorm: 0.000661062456 xtb: 6.7.1 (edcfbbe)
C            1.79738349266682        0.38869897057987       -0.09350230435765
O            1.98059957138985        1.05972689759917       -1.32465768759136
C            1.40484373396705        2.32077440360175       -1.44706419359983
C           -0.15981214854131        3.35239618809279       -2.55657515440229
C            0.18615348370697        4.77848803451218       -2.62144348227988
C            1.39243947069742        5.15399633255584       -2.10565529400242
C            1.91383014868755        4.65292644264678       -0.81922683244904
C            1.98654770346859        3.35981219591367       -0.54405446301210
N            2.43885134031603        5.17508651293375       -3.14226294667582
C            2.41333775738302        3.66319031661295       -3.51241732207306
C            1.28358877817522        2.74457004414247       -2.94822018357067
C           -0.15864832830488        2.46981189567237       -1.29995546273728
C           -0.89045242202668        1.19468754339962       -1.51680945909024
C           -0.69182210275496        0.38142500927006       -2.56020523916765
C            0.24113530209037        0.56507858250942       -3.64865964844833
C            1.10938723110582        1.56542254867623       -3.84381933865160
C            2.14594129922923        6.01060453714642       -4.32126198793488
C            3.76581349654397        5.57049558617294       -2.63859753979958
H            2.09639541266834       -0.64051467305916       -0.27657434370164
H            0.75055306355633        0.41240203913945        0.21952574150034
H            2.42598836358057        0.80687444808050        0.69864753382770
H           -0.97337927572861        3.11286742282290       -3.23920234173791
H           -0.16639113801049        5.25723670780612       -3.52477332237434
H            2.25805970158182        5.39809268986955       -0.11519484826608
H            2.37553477425581        3.00656669584804        0.39785859459125
H            2.38492154890617        3.61605600029701       -4.60124921269492
H            3.35114566283097        3.22866588921470       -3.16628684157200
H           -0.47651348140296        2.96892672682169       -0.38616113347890
H           -1.61770205072072        0.92653878977723       -0.76478690141567
H           -1.27620169759886       -0.52592340778305       -2.61271427117706
H            0.23097261503543       -0.22361062562939       -4.38743835000272
H            1.74242494352333        1.52855731341972       -4.71739949417683
H            1.98073593055138        7.03857487070812       -4.00113214672765
H            2.99153622264298        5.98520964614850       -5.00688666141337
H            1.26443911535428        5.66180317601566       -4.85150465220053
H            4.03774220776182        4.97510562831984       -1.77002803665828
H            4.51497412309341        5.42989224564598       -3.41589630536753
H            3.74416615032607        6.62111637449572       -2.35184446710909
