25
 energy: -31.649405791234 gnorm: 0.000474033821 xtb: 6.7.1 (edcfbbe)
O            1.45109889134493        0.06243577024103       -0.26049640917777
C            0.41486616772945       -0.87763701441810       -0.08001869952680
C            0.89006065692873       -2.28841972337583       -0.53158871465063
C            2.42594915054890       -2.42770831752830       -0.59203649244673
N            3.15081339013444       -2.73772462578834        0.67218853512614
C            3.02962475119028       -4.17340725888211        0.99201255007537
C            4.57519594759715       -2.41198629488380        0.46765150101238
C            2.63975153553882       -1.94349871415568        1.80169119689208
O            0.33882191645895       -3.29219214951868        0.28798410635641
H            1.07922298130355        0.95059473414361       -0.26156414260752
H            0.11491042963707       -0.91942021403414        0.97663196660294
H           -0.46666783170761       -0.60302803475925       -0.66872051683206
H            0.56528779559750       -2.43037961876175       -1.57216952258434
H            2.66903546540665       -3.21950482354942       -1.30170909171885
H            2.79333769786030       -1.47493014278655       -0.97870069324196
H            3.51253784818933       -4.77240830892382        0.22256198626412
H            3.50520663627334       -4.38163902876989        1.94823083655011
H            1.97781360734152       -4.44540204515857        1.04609298541284
H            4.69867064519803       -1.33987558243505        0.32396984288821
H            5.15464242960282       -2.71793432743083        1.33705588813444
H            4.96174197638803       -2.93088044349342       -0.40787867692466
H            2.60641338338108       -0.89212916314265        1.52237533929082
H            1.64179184937650       -2.28683087510231        2.06233350897302
H            3.29050002760877       -2.06611244877026        2.66480823022815
H           -0.60970734892556       -3.36037134871129        0.13567448590179
