44
 energy: -65.459549530630 gnorm: 0.000652366198 xtb: 6.7.1 (edcfbbe)
N            2.05716172774953       -0.85670180635351       -1.07391225918461
C            2.98667562378471       -0.47203060636858       -0.53405566470063
C            4.14166150628354       -0.08085822320517        0.23862234637544
C            3.97171363867381       -0.57508212166554        1.68882100684338
N            3.58942828874094       -1.96965741536573        1.70220257249750
C            2.34787006962664       -2.46751125950475        1.81616918095092
C            1.14419468067560       -1.67654280929924        2.16538531592330
C            1.09755620517770       -1.36351455342052        3.66896126899515
N            2.37275064292438       -3.79077432326635        1.61908657035492
C            3.67294164102521       -4.17170681324510        1.33741979083427
C            4.45228427716076       -3.00560268818066        1.39750621521982
C            5.82240029486263       -3.03665008558070        1.17321012967795
C            6.38131012816520       -4.26328552797367        0.87745129482210
C            5.60523560502664       -5.42145088014063        0.79955902171271
C            4.24406827189281       -5.39988786209227        1.02677950665704
C            1.22915288524543       -4.66944040405439        1.62677499301680
C            0.42383581133274       -4.64455895581542        2.95146758642885
O           -0.73633424841220       -4.31756609209256        2.90986860819591
C            1.11760493970462       -5.00927851274347        4.19359304664193
C            2.40680044081086       -5.54583277678521        4.24242989620155
C            2.98016182891138       -5.85698135222392        5.46046877184622
C            2.28403036402099       -5.64154302990613        6.64088251821028
C            1.00032460404158       -5.11769854567615        6.60427988689383
C            0.42034269626178       -4.80623553350815        5.39174623056230
H            5.02811093862883       -0.52088342354385       -0.22573823421725
H            4.24440167296693        1.00587039558311        0.22400310808756
H            4.91238593580690       -0.46427808955353        2.23348576636100
H            3.20381019830270        0.01060736702684        2.19462205528039
H            1.13873968697082       -0.74697500926703        1.59343674704585
H            0.24728518475477       -2.23178038988967        1.89297880367850
H            1.96359130386453       -0.78894089576437        3.98935554425458
H            0.20261458744838       -0.78693983101025        3.88250453829732
H            1.05953473969476       -2.27892731402325        4.25384693800701
H            6.43100183266670       -2.14893902748923        1.22992608724685
H            7.44195191214651       -4.33034694484335        0.69611504052699
H            6.08328434338378       -6.35632540915987        0.55461716945324
H            3.66099330839412       -6.30397008328677        0.95355026398683
H            0.53713756043582       -4.38146065326728        0.82776217228654
H            1.56735021546001       -5.68892232697297        1.43699471515241
H            2.96360538453851       -5.74687975044481        3.34129086970522
H            3.97358808666356       -6.27791506203456        5.49036812532094
H            2.73987796078993       -5.89017094796736        7.58659939923084
H            0.45307490211585       -4.95779966098538        7.51995979587071
H           -0.57984167868717       -4.40249076464107        5.34043325946221
