37
 energy: -43.895911810605 gnorm: 0.000308700786 xtb: 6.7.1 (edcfbbe)
C            0.66434861926295       -0.15078128258201       -0.57485024936597
C            0.57202472654793       -0.48739055514529       -2.06051882014216
P           -0.01268420199126       -1.43476238102633        0.54225315446941
C            0.70033084755782       -1.17709254082622        2.22909338191301
O            0.21221855598705        0.02640729289175        2.75988369672798
C            1.09949983273668        1.13508051029479        2.74352772726967
C            2.42680383412846        0.88842025501973        3.45849952252259
O            3.29310051131154        0.17971112146888        2.59126188391799
C            4.60249895044140        0.04578898183985        3.10379855330935
C           -1.81639197909404       -1.26405367526476        0.77646100067140
C           -2.61463799989097       -0.93197993359686       -0.47973570292376
C            0.49139454103872       -3.11686738664168        0.01694395930082
C           -0.42983221805407       -3.77063032321351       -1.00831990344444
H            0.12712637473203        0.77718067095062       -0.35693405547302
H            1.71290828816671       -0.01568642671195       -0.28999578109846
H            1.15480647968390       -1.37324026064348       -2.29952633619689
H           -0.45523618146037       -0.64400710933283       -2.37756274704549
H            0.97685351421011        0.34050204492193       -2.63793361439609
H            0.34028659699060       -1.99446154426167        2.86767882842082
H            1.79569493933993       -1.20294856666174        2.18476299706923
H            1.31348045163962        1.45048131750933        1.71567205721798
H            0.54685629258571        1.92333070140931        3.25681364979088
H            2.87273814917883        1.85666153626586        3.72090850636991
H            2.25925088690354        0.32081592408118        4.38488301197724
H            4.60141413507550       -0.51522093485676        4.04382153401491
H            5.17388647663649       -0.49633846240580        2.35394933866794
H            5.05699008599954        1.02607787895498        3.27377975003027
H           -2.16795162439735       -2.19816183888998        1.22506734136175
H           -1.93149992183461       -0.47031015092885        1.52315581743709
H           -2.51218591287580       -1.70195547087273       -1.23992717281004
H           -3.66826423038845       -0.85769607197691       -0.22098309117881
H           -2.30998070401842        0.02337520956740       -0.89962795628489
H            1.51077143645481       -3.03954512247908       -0.37157898182195
H            0.52721124569363       -3.72725454856575        0.92457464704473
H           -0.48567152927627       -3.19398402010822       -1.92712533120353
H           -0.04572305485825       -4.75726408577526       -1.25611013422112
H           -1.43302621416458       -3.89611075240571       -0.60914048189664
