49
 energy: -79.956229596510 gnorm: 0.000163076876 xtb: 6.7.1 (edcfbbe)
O            1.94303854768208       -2.25199553589411        0.18968802217802
C            2.60731606846963       -1.26102788532594        0.37137263074881
C            2.65641193850451       -0.53363670514053        1.65128045060689
C            3.45491922741788        0.59425413565848        1.86623232446362
C            3.46840002734873        1.20268013708887        3.10535660488652
C            2.68438061032266        0.68563928461088        4.12869781647708
C            1.87779958711910       -0.42710621375489        3.93449718813997
C            1.86745871810214       -1.03244349035098        2.69480054297065
N            2.71539119158142        1.32714542207061        5.43871796718982
O            3.42837899419055        2.29378860679580        5.55667976502655
O            2.02902059919289        0.83999181078309        6.30252381987163
C            3.48804886771793       -0.72548277910360       -0.77858422904530
N            3.29632374382121       -1.54335284183992       -1.94490905548225
C            3.56560798986520       -2.85522604596860       -2.02215694795561
C            4.28949322462173       -3.65822997384840       -1.01959970365469
N            3.10255390439443       -3.34886058160895       -3.17271810450355
C            2.50222185908451       -2.32732664050079       -3.88174077570771
C            2.61006495432213       -1.17194713400772       -3.08819525102211
C            2.09147009522175        0.04371038269694       -3.51244739721709
C            1.47179187876831        0.06564163395995       -4.74585649077189
C            1.37072667303706       -1.08016918503513       -5.53715990572602
C            1.88075128858958       -2.29377504594422       -5.12327127977138
C            3.25416896575062       -4.72028050860668       -3.61133868826463
C            4.69223789387920       -5.03370189566443       -3.96173905238670
C            5.30383780672695       -6.17749721583988       -3.46545807528732
C            6.61782746861261       -6.46351908926432       -3.79524389616391
C            7.33091398668145       -5.60406391459628       -4.61355969260394
C            6.72540091805390       -4.46123325937810       -5.10967918915909
C            5.41007736449136       -4.17703278060735       -4.78793491065210
H            4.06932956799596        1.00429949839506        1.08111259462645
H            4.07831565370490        2.07222542607487        3.29913995568480
H            1.27902495465664       -0.79870763113701        4.75222648665076
H            1.25382135479163       -1.90072156542881        2.50951037622994
H            3.20069726285508        0.29860671039061       -1.01940441138510
H            4.53784154876015       -0.73582788818088       -0.47095699006894
H            3.58080877387286       -4.25535403013590       -0.44301865944770
H            4.98426180565633       -4.33622507403565       -1.51392303744157
H            4.83766212536880       -3.02849404673938       -0.32540256238828
H            2.16114647904609        0.93842544820114       -2.91537963203032
H            1.05531863811702        0.99121235626455       -5.10947346662970
H            0.88124531069905       -1.01305773593528       -6.49540644795017
H            1.79974728106893       -3.17057542677059       -5.74471474543817
H            2.90178903911565       -5.38872394421345       -2.82119683223865
H            2.61538875615147       -4.85946557944373       -4.48630501720471
H            4.74885143013770       -6.85211627581363       -2.82969649661120
H            7.08307267656212       -7.35737598059025       -3.41034235894894
H            8.35514847093830       -5.82606813981414       -4.86821059241623
H            7.27536315387596       -3.79240535441396       -5.75327180008295
H            4.93921132296989       -3.28890345791669       -5.18638085022761
