26
 energy: -35.702689022458 gnorm: 0.000263922533 xtb: 6.7.1 (edcfbbe)
O            1.37300859364559       -0.08659827726648       -0.12898564059975
C            0.55091317855906       -1.15769763645706       -0.53983175855750
C            0.89613219659341       -1.42852703830311       -2.00848480969489
N            2.36078743477417       -1.36195912870498       -2.20197466982556
C            3.11988424128916       -2.44338590990873       -1.52732008698194
C            2.74587446639330       -3.85666025911694       -1.97822024740592
O            2.88051598777276       -3.94500464244083       -3.37680599658781
C            2.73692223925064       -1.16293004348651       -3.62295668837714
C            2.67530728857004        0.33395663095562       -3.93916313890016
O            3.29117219187715        0.98314382727711       -2.84569146228910
H            1.05781265467684        0.27847534095804        0.70340867934334
H            0.73134658036452       -2.04505779891729        0.08203047724131
H           -0.51201894458880       -0.90410884394130       -0.46908483086776
H            0.51352052950227       -2.39279515416286       -2.33916719305346
H            0.45121632453220       -0.64278468322575       -2.62014173251458
H            2.64679245242875       -0.47055330213979       -1.74126245538248
H            4.17714219960188       -2.27460017281563       -1.73893512999206
H            2.96644118385966       -2.35904303708464       -0.45162450034126
H            3.42801069757370       -4.54563031839530       -1.46581454964838
H            1.72173609985848       -4.11147562877032       -1.67091486821800
H            2.89453266287943       -4.86828017007103       -3.64885808285800
H            3.76060849718295       -1.51177147715294       -3.75470665962748
H            2.09229001585279       -1.75020129838964       -4.27446432332551
H            3.20839065674373        0.52386717783443       -4.87600506868394
H            1.63919342238271        0.67884309889154       -4.05707929611781
H            3.38523714842365        1.92413874483439       -3.02255596673419
