51
 energy: -134.771765498526 gnorm: 0.000344194660 xtb: 6.7.1 (edcfbbe)
F           -0.25155470018677       -0.20832676639602       -0.76688088063330
C            0.97295618659722       -0.68937562872526       -0.64961117538308
F            1.57030310484648       -0.08052805126174        0.36965008102295
F            0.89789283975065       -1.98445673076125       -0.37777336668824
C            1.77259262204139       -0.45719307656302       -1.97508173376549
F            1.28850794807715       -1.27144292505372       -2.92218030753589
F            1.58581693151933        0.80495626452279       -2.38856350950102
C            3.30528592898062       -0.68922097455930       -1.77861335507330
F            3.82016811455715        0.38422272460599       -1.15773186157788
F            3.52307552192797       -1.74606739608957       -0.98182416018466
C            4.04248410056967       -0.93604664127463       -3.13719398349911
F            3.70520297434648       -2.15285071107375       -3.58412060919997
F            3.64985220460489       -0.03583115575410       -4.04775784900623
C            5.59609136805385       -0.86880966980093       -2.99269521388189
F            5.97008124802827        0.32945187991819       -2.50465087830051
F            6.00805372326466       -1.79348924429727       -2.11304591445455
C            6.34041707234377       -1.05818405964846       -4.35859744972765
F            5.81231292848315       -2.05416252186952       -5.07277085917397
F            6.20412225276178        0.07319115405679       -5.06620800248316
C            7.85518635724938       -1.36633383157820       -4.12922114458643
F            8.31871140096814       -0.65671783781434       -3.06920025602965
F            7.99281828823942       -2.65826602567672       -3.79584841134423
C            8.77241267754763       -1.04368426464581       -5.35466872913576
F            8.21071195759606       -1.56704935743874       -6.45484894771388
F            8.76888667245401        0.30247259437028       -5.52249147466948
C           10.21158240774649       -1.56447419822899       -5.18416128832658
C           11.22639816271040       -0.48464585391668       -4.78118823917254
N           10.96551348081729        0.07279538115911       -3.46249584257083
C           11.19608301402284       -0.67770578501516       -2.37121228402859
C           10.88094853511320       -0.23051516716425       -1.11465224171485
C           10.28922257935875        1.03090242473228       -0.94457850138578
C           10.09709045578778        1.80144969099798       -2.10021506456012
C           10.44545403267607        1.30308614388777       -3.33016812087017
C            9.88807431894479        1.51745610743132        0.36893952615533
C            8.72067254323018        2.27213367585094        0.52184520615064
C            8.37824988801992        2.70375838313840        1.79511819513877
N            9.10807757105333        2.45146183634305        2.86486355642771
C           10.21248352968268        1.74247785021038        2.72787240610174
C           10.64790414801797        1.24183008518428        1.50977048135074
H           10.21165524047898       -2.39363796521320       -4.47478576254728
H           10.51368691043761       -1.95960227091049       -6.15744371609126
H           12.21912072434383       -0.94243984769884       -4.78433130738211
H           11.21505058498974        0.32463703679605       -5.51421712742597
H           11.63573936037500       -1.65189200929760       -2.52676611034880
H           11.06297481590012       -0.86792850167339       -0.26410766016614
H            9.68319025448340        2.79459701301673       -2.03184238497461
H           10.29608709431229        1.88066371816756       -4.23003633264630
H            8.07613975407746        2.47586674097626       -0.31845853638659
H            7.48047609552111        3.28203505637298        1.96276321396724
H           10.77367028644980        1.56570982967412        3.63473534449963
H           11.57388448685247        0.69276287796859        1.44396258331325
