29
 energy: -38.807971914332 gnorm: 0.000929186659 xtb: 6.7.1 (edcfbbe)
C            0.75491225266373       -0.13887028910223       -0.03687768704003
C            0.39049352254726        0.31930704589336       -1.39281112725496
C            0.34349935483106        1.60365849848056       -1.91691581506079
C           -0.06585234704667        1.48973117027537       -3.23860870584860
N           -0.25635265793060        0.18162745202304       -3.48729880995738
N            0.02268044640467       -0.52743546080797       -2.36813162784481
C           -0.04818497672794       -1.95917586354969       -2.30678077693929
C           -0.70861253664937       -0.41497358303188       -4.69634047968377
C           -1.95240239922301       -1.03499874894451       -4.73119675566864
C           -2.39237043539980       -1.59963540828238       -5.91535127885477
C           -1.59864992537185       -1.54377433303261       -7.05018115362249
C           -0.36086202235518       -0.92200407097486       -7.00769819989143
C            0.09262331997244       -0.35436187024779       -5.82955817285339
C           -0.28929302610173        2.54307757630941       -4.25004084822270
H           -0.05320979723907       -0.71924549249966        0.40633019535266
H            0.96223481807841        0.71618385140605        0.59888365436581
H            1.64310219582374       -0.76988934823238       -0.06665170303612
H            0.57497863820262        2.51179930255722       -1.40046331609033
H           -0.97905118197912       -2.28657740228595       -1.83785393688100
H            0.00410644848584       -2.37186060939243       -3.31369874206562
H            0.79001002443919       -2.33966759667783       -1.72349224912046
H           -2.57172280757564       -1.06040226303940       -3.84729838082916
H           -3.35791211311495       -2.07863419333772       -5.95091765807491
H           -1.94676558073293       -1.98460863039767       -7.97064874441900
H            0.25563757785821       -0.87952767067898       -7.89167407622931
H            1.05734371211030        0.12685590671161       -5.78416638184566
H            0.63975447379930        2.77157373338515       -4.77220829559549
H           -1.02496174558515        2.22956592378666       -4.98641772506564
H           -0.62600323218356        3.45515237368721       -3.76520120172269
