36
 energy: -51.952126993476 gnorm: 0.000150850562 xtb: 6.7.1 (edcfbbe)
C            0.35037849330466        1.02618945128761       -0.33516561909774
O            1.46558940807795        0.87468601556772        0.51989232806411
C            1.41971622088118        1.44543778767632        1.75810887017692
C            0.45681823091997        2.35649777202832        2.18303414031111
C            0.53390091768771        2.91651345196925        3.44063761605356
C            1.56646165028439        2.58094941279528        4.31831173451113
C            2.52241717686599        1.66179177311208        3.90105978832738
C            2.45304206577944        1.08862477948804        2.63566106093027
C            3.50040468442772        0.11953472885464        2.17434477215889
C            4.51812723544809        0.81419052325205        1.24130706995405
N            5.12423009718115        1.90959020585774        1.96065098506734
C            4.46471555065413        3.07267757297799        2.04469519245204
C            4.91867494601814        4.09099130082375        2.86072361561366
C            6.07680412273861        3.90514118957923        3.60042755906813
C            6.75240622490218        2.69340168245724        3.49010214148910
C            6.24397041465184        1.71209730661269        2.66880088024793
O            1.55962695027645        3.20880565077975        5.51886970567230
C            2.50022561441960        2.82964576599309        6.49530821387788
H            0.22809100835168        2.06504152746616       -0.65444096822180
H           -0.56770378360829        0.67829775790606        0.14365455122613
H            0.56270961405274        0.40568695096552       -1.20374137599091
H           -0.36003069152589        2.63407411436429        1.53781679554851
H           -0.21029629741882        3.62112919849623        3.77315775344924
H            3.31972761005119        1.35654661081612        4.56221317993986
H            4.02213053408822       -0.31401638373532        3.02843484709764
H            3.03073234124185       -0.67883946659569        1.60030238158403
H            5.28513369346648        0.10673368479804        0.92565691189042
H            3.98749096365436        1.19088832933557        0.36615298723103
H            3.57739192738410        3.18532349939610        1.44203142660774
H            4.36605777045390        5.01505910596132        2.91252525907437
H            6.45145530002020        4.68481758244700        4.24457236670376
H            7.66109459610112        2.51134626158982        4.04094329204572
H            6.72876814187419        0.75228634116208        2.56623426208674
H            2.42570490646008        1.76459173281543        6.73307448386452
H            3.52410725229142        3.06512900436270        6.18202822737886
H            2.25445510854176        3.41247777735026        7.38063356359868
