34
 energy: -43.665370146558 gnorm: 0.000653282550 xtb: 6.7.1 (edcfbbe)
C            0.55394317562875        0.40084056287019        0.10653632975978
C            0.21687017998439       -0.79054301993062       -0.35083356111429
C           -1.19082386187758       -1.16147125998102       -0.71242295201296
N           -1.29310132543605       -1.74481966068507       -2.08861538490347
C           -0.37947902304920       -2.91427836981974       -2.19412941796107
C            0.62115305989572       -2.99792451287811       -3.15082599301106
C            1.44058885455021       -4.11694969015861       -3.20085017480281
C            1.27537715448638       -5.15570983928186       -2.30442971705853
C            0.27827201965980       -5.07221171021463       -1.34707205458831
C           -0.54439825553892       -3.96174553325163       -1.29128256788128
C           -2.68802994273447       -2.23204272896259       -2.35266118111546
C           -3.73349560437174       -1.37669195727736       -1.82753470536864
C           -4.63771014221060       -0.73540406039784       -1.37597116936311
C           -0.94008196253080       -0.67114615304517       -3.06988843420152
C           -1.83900948132851        0.53029244337358       -3.03137989846740
C           -1.40814590920661        1.73321728330324       -2.69718130441198
H           -0.16801108836301        1.19128295034400        0.22849206949640
H            1.56347432979109        0.62498701839437        0.40144062117890
H            0.95297146032139       -1.57780772438719       -0.44167700129710
H           -1.57336521153250       -1.89295003523618        0.00295683699360
H           -1.83381113871688       -0.27973834768633       -0.67756332160470
H            0.80150089274567       -2.21762446006230       -3.86958208121366
H            2.21261685491651       -4.16396795456055       -3.95226143278612
H            1.91645101049220       -6.02105536128137       -2.34830520754422
H            0.13538635682949       -5.87081276892088       -0.63679748751397
H           -1.30517246623538       -3.93304828650815       -0.52571237426019
H           -2.80791886687125       -2.34255666411908       -3.43489962277597
H           -2.80647650336516       -3.22052278486441       -1.90077396296613
H           -5.43272838867898       -0.16087304433962       -1.00056266401649
H            0.08254811824245       -0.35558716520447       -2.85088409974261
H           -0.98776734388769       -1.10554886079858       -4.07207051229808
H           -2.85770562442036        0.38371576627666       -3.35779439762109
H           -2.05601345099861        2.59078783405431       -2.73107000951781
H           -0.39023787619001        1.91412809523523       -2.39168316600125
