50
 energy: -68.581863566284 gnorm: 0.000417310873 xtb: 6.7.1 (edcfbbe)
O            0.28332775674386        0.49834294045618        2.32659558293621
C            0.28519238060516        1.15230434577039        1.08461517077910
C            0.57070151814711        2.65598890485047        1.18902359698002
C            1.96671046732557        3.00610092994890        1.71450705003799
C            3.13235438208633        2.51984247998629        0.84699532591450
C            3.18062127039760        3.12113876749590       -0.55897833240051
C            3.55432915059881        4.60628587039118       -0.59177328115995
N            4.93942472183242        4.82144692053190       -0.23063714798162
C            5.43783121097441        5.19013326637578        0.96106085247168
N            4.73156372485009        5.43061067605533        2.07135611433915
N            6.78058927865528        5.24703412320736        0.91184425870321
C            7.18037065100601        4.90069804457525       -0.37187014698584
C            6.01110572384599        4.62143174256530       -1.09495569840881
C            6.06018718507432        4.23787543448131       -2.42458627063878
C            7.31191917737348        4.14283673316506       -3.00582541692829
C            8.47275843828519        4.41988179231876       -2.28811857299854
C            8.43022752997716        4.80421310649751       -0.96003442674719
C            7.63279524567684        5.61974963815474        2.02567355617947
C            7.29369286840774        7.00147666738958        2.53354365805837
C            6.91201039778781        7.20057239402134        3.85555861790734
C            6.60377724855206        8.47363653170624        4.30758110981479
C            6.66373713579539        9.55070952532508        3.44003540593799
C            7.03695524889643        9.35612775451383        2.11956054889206
C            7.35119223846471        8.08737755301804        1.66700982996679
H            1.17450648906208        0.48853116491065        2.69073032664702
H            0.99014871821311        0.67319078952160        0.39063579216367
H           -0.72269252216985        1.01472754545786        0.68674643628178
H            0.40906685162260        3.10481284536044        0.20815471580189
H           -0.16264836664947        3.08539487060623        1.87400463352526
H            2.01134826789614        4.09293280220883        1.83203737575284
H            2.08452964339806        2.58031492434670        2.71379059274438
H            4.07257858272201        2.73037606531736        1.36489376372149
H            3.06680130374073        1.43644191944801        0.74285357546858
H            3.91173218782110        2.56906926175636       -1.15277507775372
H            2.21064848994953        3.00404895700548       -1.04057632481783
H            3.41981594148573        4.99594143796994       -1.60368550584946
H            2.91335934383969        5.18411057541798        0.07588764618494
H            3.72592703125703        5.42186495495852        2.03610325414677
H            5.17282095627381        5.93974491155579        2.82437400694429
H            5.16766677160852        4.02190465452706       -2.98813988990089
H            7.39077343942625        3.84660686126323       -4.03927345211782
H            9.42841464215902        4.33275606084700       -2.77944437303155
H            9.33619776528904        5.01678270674439       -0.41645672263411
H            7.52784152310827        4.87842743158501        2.82493736466986
H            8.66338535434560        5.59306999218466        1.66757120712230
H            6.88441462659701        6.36525168460815        4.54220709983929
H            6.32228017415042        8.62151007687773        5.33834301862997
H            6.42765988220820       10.54196948197851        3.79342569998433
H            7.09192397418817       10.19496761220075        1.44329047715134
H            7.65187397703507        7.93787426853836        0.63973297475623
