41
 energy: -42.512337756862 gnorm: 0.000279652481 xtb: 6.7.1 (edcfbbe)
C            1.36093175858012       -0.18827896582763       -0.08813503480537
C            0.76285033065735       -0.92785669731165        1.10401668579453
C            1.18959665590404       -0.35099456518942        2.45760904079019
C            0.78844659583355        1.10571387688515        2.67696579570843
N           -0.67322605204638        1.33872398497327        2.54376210750548
C           -1.50620058195907        0.60266897143582        3.54433952693737
C           -1.18690819202404        0.83371349543866        5.02041525044074
C           -1.60157813791389        2.18165871052316        5.61665331276956
C           -3.10495535849516        2.42914942992524        5.56846320390259
C           -0.98614720325426        2.78937293604051        2.42794675742997
C           -0.84383049612788        3.28986413683272        0.99161195639667
C           -1.76785911368398        2.59567348230033       -0.01450902337678
C           -3.24920066992869        2.75384688797356        0.30934473515720
H            0.98442393971347        0.82831202338315       -0.18099970836270
H            1.11884217773245       -0.71350513002370       -1.00769131199073
H            2.44349050592401       -0.14696732203758       -0.00228285205191
H           -0.32840579870933       -0.95845878982309        1.01629917473100
H            1.10120356478456       -1.96393573351224        1.07032002342925
H            0.80044690932992       -0.97902858581456        3.26010094358591
H            2.27788353918098       -0.39178756553627        2.52325515822092
H            1.10451142821427        1.44084133972113        3.66527924230832
H            1.28856353115526        1.72880632573341        1.93461653255770
H           -0.93355190830693        0.93686790177766        1.63230580937911
H           -2.54915599825232        0.86135756555261        3.35414750826464
H           -1.38666262488198       -0.46172291742231        3.33322361029086
H           -1.72789167072603        0.05475840158226        5.56237098723071
H           -0.12698719546579        0.66372547674399        5.21021905002417
H           -1.29197535077304        2.17452823637458        6.66275929954745
H           -1.07250055086943        3.00560863424697        5.13748956308771
H           -3.64126383042515        1.60382887397030        6.02968268198026
H           -3.34605829089827        3.33496055862376        6.11696956293485
H           -3.47501770404126        2.55344255508803        4.55275613996060
H           -2.00973620545971        2.95364458059062        2.76258104626536
H           -0.31686514979775        3.34791274789856        3.08308985997832
H           -1.07787129415569        4.35512314749388        1.00000416121219
H            0.19112387782016        3.19618201637728        0.65601008725781
H           -1.57667434370877        3.04004047226610       -0.99181374807806
H           -1.52470411540560        1.53147426996954       -0.11077432657887
H           -3.49883206851865        3.80290678303320        0.44339575107958
H           -3.84902236034921        2.36934295449242       -0.51042067158492
H           -3.53602254865541        2.21149549525157        1.20786211066783
