28
 energy: -36.157491367917 gnorm: 0.000435818038 xtb: 6.7.1 (edcfbbe)
O            2.31175587552513       -0.09017459951754       -0.09203953976886
C            0.97266908620245       -0.04723588661247       -0.07598175931950
C            0.35003249065762        1.13963851148461       -0.47018478491775
C           -1.02343574080844        1.23709869860586       -0.46792198648310
C           -1.81733196117158        0.16375483370456       -0.06421537326423
C           -1.19266871773517       -1.02269935406864        0.30976195224656
C            0.18355487122604       -1.13094866818397        0.30692034380934
C           -3.31672444141036        0.26729425443471       -0.08113479125601
N           -3.91676985531168        0.78581437245713        1.20180626071246
C           -3.43638753284511        2.15104696037851        1.47287890335568
C           -5.38316834316579        0.80478915624421        1.06229009625376
C           -3.54577018620621       -0.08989455410196        2.32568959599967
H            2.64523186029996       -0.96026487320358        0.16364346317343
H            0.96768113884292        1.96379479808113       -0.78639671912047
H           -1.48241111326004        2.15442819062848       -0.80602615287310
H           -1.78343830506428       -1.88288487258374        0.58920841561205
H            0.65042410459127       -2.06307385067509        0.59100484783772
H           -3.63154495650185        0.94174326885693       -0.87993239888124
H           -3.75131327967301       -0.71731288999457       -0.26495831843816
H           -3.72271820637618        2.81795681805936        0.66185917878292
H           -3.86985955466069        2.52279812326027        2.39948555963050
H           -2.35178744851376        2.15188077633146        1.56422912298765
H           -5.75909624716089       -0.19974716740040        0.87499395933808
H           -5.84238326814243        1.18354688755040        1.97403128574780
H           -5.67643568505734        1.44587655969417        0.23259056897886
H           -3.91137471738256       -1.10000555948972        2.15156386551663
H           -2.46272243735189       -0.12028550987491        2.42985719061593
H           -3.98033742954570        0.28423557593536        3.25078721372373
