22
 energy: -29.832191596362 gnorm: 0.000274387245 xtb: 6.7.1 (edcfbbe)
O            1.27631563520879       -0.32376919303411        1.00169476504447
C            0.62207458582837       -1.55220230431901        0.80591466233617
C            1.06030429400469       -2.08712780065919       -0.56689657591670
N            2.50318139509855       -2.23898947574840       -0.58626501124659
C            3.26448514554999       -1.16593287434275       -0.81170561079567
C            4.64184183400030       -1.25881440818633       -0.74605092848335
C            5.23020103466103       -2.47571477533376       -0.45001059881637
C            4.42645185482046       -3.59663596136171       -0.21693456478244
C            3.05377848702572       -3.42236751027358       -0.29127147748193
C            5.02135685732474       -4.92325943540111        0.09492206665210
H            0.90783445406765        0.13070890157305        1.76620754541892
H            0.89699011339112       -2.27055383241921        1.59186518141764
H           -0.46750474035297       -1.43754898819747        0.79789116670736
H            0.57778631579259       -3.04396851090681       -0.76545461615599
H            0.76962974820991       -1.36408195943737       -1.33102293601471
H            2.76203832634947       -0.23527233227596       -1.02337313927511
H            5.24196668099894       -0.38186527262126       -0.92711940739298
H            6.30432741812793       -2.56679258076731       -0.39621058647532
H            2.38047154378224       -4.24889032998554       -0.11493013717986
H            5.59280740213425       -5.28360287144123       -0.75962127003773
H            5.71302788999969       -4.84047863594806        0.93105101193589
H            4.25994372397663       -5.65815984891335        0.33726046054245
