23
 energy: -23.524791058546 gnorm: 0.000166840120 xtb: 6.7.1 (edcfbbe)
C            0.93651192106969        0.46453549788815        0.01775974964870
C            0.62193730128021        0.01764437279971       -1.40693624776695
C            1.17906354013826       -1.34129444705971       -1.83932857651456
N            0.59643904796894       -2.58211335673642       -1.22949925056638
C           -0.87492584262957       -2.51923220061338       -1.19262928402817
C            1.00183112161918       -3.72960826322343       -2.06689275231354
C            1.11379174288464       -2.80459212995415        0.13314067559863
H            0.29056160766036       -0.00163565587932        0.75799738965611
H            0.77712755355370        1.53641644507234        0.09496843027993
H            1.97536665496902        0.26844881412581        0.27129622115123
H           -0.45118265760535        0.07559796952180       -1.58761511472064
H            1.08861297862853        0.73187857416520       -2.08888317868765
H            1.02738672318996       -1.42320174368180       -2.91801833004171
H            2.25383223617420       -1.36079880869281       -1.64646649521133
H           -1.26557769098548       -2.28386236900318       -2.18112449693135
H           -1.27880771666288       -3.48034519742673       -0.87867048047343
H           -1.20723834034949       -1.76035464318294       -0.48844669893465
H            2.08556898879016       -3.76020069559912       -2.16615618348672
H            0.66866465027666       -4.66147877661591       -1.61311302037214
H            0.56200576663122       -3.65198356639111       -3.05964450392653
H            2.19761407952087       -2.90139585003180        0.11243363621127
H            0.84993889647705       -1.97606425645204        0.78306691273263
H            0.69155743739956       -3.71950971302878        0.54560159869709
