26
 energy: -43.777887165423 gnorm: 0.000566616350 xtb: 6.7.1 (edcfbbe)
O           -0.10226116875957       -0.30734174164649       -1.51062581965152
N           -0.02922984067940       -0.37296294740535       -0.12795574190678
C           -1.04392055165339       -0.14215530291964        0.56883887652387
C           -2.46142443260439        0.22981768291025        0.18436082521632
N           -2.69307058572599        0.23455253052762       -1.23906338008871
C           -3.13602530089931       -0.82566264247291       -1.97630953977565
C           -3.15922159879069       -0.43745566276340       -3.27980010468954
N           -2.73027549139411        0.85385075073033       -3.30973833103302
C           -2.44712555166738        1.24559890743224       -2.06817770905927
C           -1.92053912409009        2.61369915647385       -1.70680868308639
O           -2.04103818737450        3.42797821103606       -2.83217197072135
C           -2.45319805767206        4.71087742284088       -2.37098057560067
C           -3.28512335320225        4.36318667301546       -1.13683868405699
O           -2.65052514668675        3.18211494807245       -0.64914215670257
H            0.78695026198779       -0.56474569259104       -1.80107178458516
H           -0.87363058883998       -0.21624841143516        1.63331245527195
H           -3.14544397577526       -0.48414785370934        0.65114092378255
H           -2.67010859078521        1.22874382396965        0.58124259482132
H           -3.39393989748074       -1.76453753207796       -1.52988441006337
H           -3.44432750373181       -0.97776400024892       -4.15908000713130
H           -2.62116216098488        1.45132604197673       -4.11967188216167
H           -0.86421487599853        2.51055709147550       -1.38508317750037
H           -3.01616557251978        5.18912038899736       -3.16927565936538
H           -1.57759422862195        5.31351123132037       -2.10789559692148
H           -4.32604842824788        4.14131602329783       -1.39748920442340
H           -3.24614604780179        5.11634090319421       -0.35222125708998
