33
 energy: -38.682957157802 gnorm: 0.000716210875 xtb: 6.7.1 (edcfbbe)
C            1.11784977939695       -0.07310875360884       -0.48395497616817
C            0.20000932292214        1.14285478506580       -0.46987619191774
C            0.37260413975934        2.14462956835062       -1.61487987384359
C           -0.38126058947431        1.78953809251408       -2.90124989501971
C           -1.89616297285783        1.99396606860090       -2.80517448126292
C           -2.30347002864044        3.45901509549635       -2.71003495170577
S            0.66463670537597       -1.40350679775491       -1.66560780241928
C            1.65412487872782       -1.17362862583974       -3.07540253127817
N            2.41249002488553       -0.09906061277156       -3.24127329408312
C            3.28117452252774        0.12457211943950       -4.37880848291332
N            1.62824265601532       -2.14475397981300       -3.97431157014345
C            0.84513261650483       -3.35092435542896       -3.83111510279256
H            1.03050853199617       -0.59275808583577        0.47197257287469
H            2.16656843549228        0.18314270296247       -0.62984718927591
H           -0.83660127572435        0.80725848940165       -0.43054547551270
H            0.40648014056871        1.65742371361082        0.47155072978492
H            0.00657640818508        3.11178164149695       -1.27121675608113
H            1.43950440513734        2.28528416405388       -1.82283359133485
H           -0.00286480993420        2.41920045422736       -3.70979759181260
H           -0.19563671507360        0.74931642847194       -3.17821739261166
H           -2.35089952635129        1.56290299072236       -3.69944386617128
H           -2.29376783495034        1.45023170475754       -1.94634874573618
H           -1.88982784405396        4.02559011786934       -3.54103904304290
H           -3.38591888703640        3.54479262366330       -2.74523570856654
H           -1.96488155107098        3.91034943348251       -1.78106402207859
H            2.28138752517552        0.67555274151049       -2.60432079735838
H            2.70886502984024        0.23511628409630       -5.30274266660438
H            3.84040915165964        1.04042922202724       -4.21095379896638
H            3.99302244822332       -0.69521534654214       -4.48591998577855
H            2.16162637795708       -2.03331736124258       -4.82463303058136
H            1.04445719702029       -4.00452300278557       -4.67496452398054
H            1.10711826772509       -3.86920831034620       -2.90744750435552
H           -0.22110652991016       -3.11848320985295       -3.80387245926865
