36
 energy: -38.344181522654 gnorm: 0.000297278032 xtb: 6.7.1 (edcfbbe)
C            2.29162290610591        0.03821305784196        0.27783259679652
C            1.11940066719367       -0.81738596288040        0.74341811126915
C            0.78186145864373       -0.60160333379163        2.22376777199947
C            0.16005685414364        0.76662963241606        2.53568035186674
N           -1.32232426766902        0.79772316923202        2.76563615313005
C           -2.00496262769384        0.22189689644082        1.59621926221871
C           -1.65407179448184        0.04448444717096        4.00698257365194
C           -3.09877786295369        0.22178063302850        4.45592139914149
C           -3.39672651467429        1.69278607283071        4.71957364631529
C           -3.11002155124433        2.53645083719771        3.47523329177292
C           -1.69802861901521        2.23365003681387        2.94709884512504
C           -4.23501807961899        2.44644311770465        2.44229249349783
H            2.07542027946239        1.10173757814620        0.35115246231858
H            2.52197883509604       -0.18365758400596       -0.75992764697277
H            3.17651669320041       -0.17159586468324        0.87298524245701
H            0.25172239341353       -0.62012385283148        0.11210229998387
H            1.38548839592164       -1.86682390366649        0.61090675563540
H            0.14315174019379       -1.41317636658703        2.57105104106608
H            1.71270850038038       -0.68242265642331        2.78720691405482
H            0.62735582725813        1.18168803548823        3.43033703233509
H            0.37053046226764        1.44506142523914        1.70665060370560
H           -1.73879721926250        0.78447666009697        0.70369771392806
H           -1.70932489761861       -0.81553513013357        1.46227916585925
H           -3.08055245421589        0.26406642703035        1.72167238444443
H           -0.99299622328333        0.40831315375218        4.79703443235986
H           -1.44371122896808       -1.01243007113735        3.84297702715522
H           -3.23190761162021       -0.35070931468057        5.37420329148172
H           -3.79230314310134       -0.18995713141120        3.72355057412240
H           -4.43758057407386        1.81689211435859        5.01353371638631
H           -2.77656879771393        2.04017251087319        5.54802857808973
H           -3.05967663914474        3.58708050489966        3.78069022813644
H           -1.55180833292331        2.74223402731281        1.99206898716698
H           -0.98850483320251        2.65176945348624        3.66516588618788
H           -5.07504582424818        3.04473048904996        2.78497640955189
H           -3.92003882260969        2.84464162576898        1.48121337441351
H           -4.60801709393781        1.43616926605923        2.30150702934893
