42
 energy: -44.658464166149 gnorm: 0.000271630236 xtb: 6.7.1 (edcfbbe)
C            1.31184795286380       -0.37325078412096       -0.58564618082055
C            0.64930278487983        0.92505167123621       -1.02241233523973
N            0.88821985908833        1.20548523707680       -2.51038874027137
C            0.48390201094740        0.06824723514467       -3.35674465593576
C            0.14755758489468        2.40480545833944       -2.95358439095460
C            2.32291428167191        1.47719353803857       -2.73550075055033
C           -0.84194023787691        0.95507627343718       -0.65645640094699
C           -1.17086672479175        0.87492331615467        0.86044525301566
C           -1.27804052943221       -0.58640386246005        1.35627930323614
C           -0.63933871990035       -0.92384840405725        2.70322469278820
C           -1.24893954047841       -0.17963576666558        3.89087699854873
C           -0.61385979772696        1.18349586785922        4.14224806997329
C           -0.86748348610724        2.19923633088840        3.03440733028321
C           -0.27155848895484        1.80981579175801        1.67838010287060
H            0.81390533920142       -1.24598818565004       -0.99789906666215
H            1.24322263322381       -0.43665613892119        0.49552685053430
H            2.36814067574228       -0.41529767951716       -0.83397932856333
H            1.14021628399692        1.75603520763970       -0.50787730408812
H           -0.54787221187936       -0.20707733823172       -3.15158134845932
H            0.56662107073551        0.34445132544787       -4.40655195566780
H            1.12516702566369       -0.79049669691643       -3.17610564309588
H            0.30615805245854        3.22656352124663       -2.25763440575884
H            0.50378267479417        2.71164950469427       -3.93586026119547
H           -0.91633652347699        2.19770224844763       -3.03294905592038
H            2.63924564635794        2.33759191906945       -2.14860868957959
H            2.93264291784004        0.62098583795907       -2.46146288270127
H            2.49748545655442        1.69031133618911       -3.78869478910356
H           -1.27059925543151        1.89649605081569       -0.99636799078093
H           -1.37231434014134        0.14064967888413       -1.15202368534698
H           -2.17649470222396        1.30176972782584        0.93742877269617
H           -2.33784567817986       -0.83824755811874        1.42961400463147
H           -0.85766343347929       -1.26424381010680        0.61333879377058
H            0.43844538784680       -0.74954720767293        2.68281249291291
H           -0.78315461467419       -1.99620642056853        2.85324039076464
H           -1.11054484179447       -0.78447327370787        4.78876301977201
H           -2.32319805944844       -0.06390167108899        3.73738342784424
H            0.46339245408986        1.05766850790163        4.27738903296514
H           -1.01286885558251        1.58804041961507        5.07407370688420
H           -0.42531286289897        3.14920503842857        3.34234389012104
H           -1.94166857575835        2.36027616097757        2.92577720577923
H            0.71870951635304        1.38269533126779        1.83706815665484
H           -0.15046812896646        2.73194226146856        1.10148836559722
