47
 energy: -48.442810178517 gnorm: 0.000311333690 xtb: 6.7.1 (edcfbbe)
C            0.69757337903625        1.47126666734466        0.16757306161670
C            0.02689329856621        0.27535455895786        0.84984867486994
C            0.53545405371214        0.09427673967363        2.28404007228418
C            0.32882742425459        1.30708577280777        3.19391478121993
C           -1.13708515481465        1.70495565007041        3.35804782627615
C           -1.32737318837024        2.89347168607154        4.30270579495641
C           -0.79432980096820        4.22622069724698        3.77167853225719
C           -1.54153282748482        4.73059007611339        2.54159858820044
P            0.26840406943788        1.68018230660715       -1.59217874055245
C            1.26034980530248        0.58770177583925       -2.67343541752355
C            1.01032417940201       -0.90683011703325       -2.50513002120920
C           -1.50120637420165        1.33478580771086       -1.88445017038295
C           -2.42923496106575        2.35249679773556       -1.22867264001196
C            0.67856802325089        3.38052263499494       -2.14601940807964
C            0.54312474113526        4.46493130382986       -1.08079272857852
H            1.78738520542327        1.38279989690109        0.22532647239945
H            0.40707021788058        2.39156473609754        0.67923799054412
H           -1.05392795869297        0.41709416774618        0.86975744458851
H            0.22959948354898       -0.64265483981227        0.29650772646617
H            0.01879043452580       -0.76413144012784        2.71643120895762
H            1.60100869768785       -0.14438777392910        2.25557413252338
H            0.72976498015940        1.05769139178067        4.17767212259555
H            0.90916861211670        2.15249341190520        2.82187715647806
H           -1.57986971566905        1.94914771690492        2.39106402865187
H           -1.68607462955336        0.85097391870113        3.76008716713880
H           -2.39392901704871        3.00590983282245        4.50804820587499
H           -0.83250841585471        2.67130086274501        5.24981498842092
H           -0.89634747532606        4.96921068049210        4.56409930087922
H            0.27092515554015        4.14273673815808        3.54669183515319
H           -2.60509306388817        4.81366090156952        2.75217340032582
H           -1.17306246160497        5.71191532401429        2.25239122296591
H           -1.41386690144896        4.05897295205855        1.69373554597415
H            1.03823564195829        0.89403106915308       -3.70122502612797
H            2.31214233685465        0.81889683487700       -2.47727804566708
H           -0.03814235282567       -1.15606240957106       -2.64885632908945
H            1.58731846868886       -1.45179903079486       -3.24839279003082
H            1.32577363469930       -1.25358829048890       -1.52482882282834
H           -1.65056413320909        1.32384743908764       -2.96842406785866
H           -1.70700588367381        0.33027621518692       -1.50543642126440
H           -2.29884502866496        3.34164062065044       -1.66053928173487
H           -3.46341757922082        2.05588912541087       -1.38562519070621
H           -2.25951035636049        2.41300268021867       -0.15597898514704
H            1.70715444994902        3.35624276561998       -2.51765752508154
H            0.02520874437105        3.59642414095000       -2.99701488457905
H            1.27845650060300        4.33552330476302       -0.29069655754808
H            0.71975996053475        5.43569507015184       -1.53766259027761
H           -0.44964421868996        4.48207962878121       -0.63884163733793
