41
 energy: -54.199429764699 gnorm: 0.000246216177 xtb: 6.7.1 (edcfbbe)
C            0.88031861274686       -0.41317088723275       -0.45259899656062
O            0.35206352398828       -0.81162582294661        0.79746302293083
C            0.78596148132201       -1.93758389951232        1.36958788874958
C            0.22364837411334       -2.26292341592396        2.60953005405878
C            0.59914841832615       -3.39887144123796        3.29132959245237
C            1.55633496515610       -4.25678765413035        2.75772514476251
C            2.11507492034837       -3.94166285199762        1.52438493235957
C            1.74159087897369       -2.80430011384483        0.83569384770859
N            1.99766733186039       -5.48692567371672        3.45846365067838
C            1.64002173390935       -6.70126882096902        2.59643404587072
C            2.16269596903903       -7.99281080491953        3.18413585005556
C            3.37556930753445       -8.49747603755331        2.72052887311055
C            3.88345406549311       -9.68724509309196        3.20992448180018
C            3.18365365268334      -10.39565621381287        4.17184321562745
C            1.97040405972152       -9.91188341888919        4.63004645946472
C            1.46053893905789       -8.72190929697912        4.13972059077139
C            0.14890525559602       -6.74630330790113        2.28877596035237
C            1.40537099253766       -5.61305552320322        4.80120546144296
C            3.46321145431016       -5.41571399510685        3.64596243224233
H            0.38460893060449        0.52524581499764       -0.69190259783104
H            0.65858345562895       -1.14841787374289       -1.23076256288079
H            1.95942996964182       -0.24794228468485       -0.39427117312391
H           -0.51652454917430       -1.59842028359380        3.02356988148805
H            0.12417817055719       -3.58687870636629        4.23809479272943
H            2.85539570324929       -4.57616903168615        1.06299806019884
H            2.20263059897359       -2.60256569208549       -0.11684947075563
H            2.16482951554785       -6.53592212959921        1.65124169324221
H            3.92412509565243       -7.96489367289309        1.95663307675272
H            4.82207736592414      -10.06267866966442        2.83391085777455
H            3.57566048010867      -11.32485070894733        4.55350961341346
H            1.41115678755550      -10.46486498122207        5.36836236569336
H            0.50164466070189       -8.38406338679045        4.50080705992657
H           -0.18407204927894       -5.81804927482059        1.83037109830623
H           -0.02414006257724       -7.55381539445371        1.58152948711714
H           -0.46100528805024       -6.94351300411064        3.16423255110111
H            0.32317842529519       -5.68327149280625        4.74192220303264
H            1.79213999381208       -6.51326755730319        5.27543535943451
H            1.68035598196187       -4.75267013515523        5.40821289241905
H            3.97938704829262       -5.39389148269136        2.69060384179899
H            3.70976133058603       -4.50737568208219        4.19341528014170
H            3.80914449825176       -6.28138009733956        4.20789918214439
