47
 energy: -48.835910340679 gnorm: 0.000194980914 xtb: 6.7.1 (edcfbbe)
C            1.58368980654025       -1.29021902947917       -0.55994599027777
C            0.98335528645707        0.09394785858276       -0.34616555737890
C            1.16615963881230        1.02681803023544       -1.54609662430441
C            0.42652837989561        0.58505063903914       -2.81547543114502
C           -1.10466360375942        0.61940122680435       -2.69622491967786
N           -1.80215399470401        1.73758108485233       -3.39548507938414
C           -1.49017363312539        1.75971549509644       -4.87002582897049
C           -1.37582602577564        0.43116687545772       -5.62537729784437
C           -2.65538145973185       -0.35545863517757       -5.93015451304966
C           -3.70337402969027        0.40011947428782       -6.75295243072256
C           -3.19761317216410        0.81913853364729       -8.12857077885451
C           -3.29405541256753        1.60051396774153       -3.24378655325997
C           -3.83004174078478        0.96175565224717       -1.96887745647740
C           -1.34928583638358        3.06486610672243       -2.86695179295280
C           -1.75543331216617        3.41380068541078       -1.44404919460974
H            1.05428755297068       -1.84378859852604       -1.33171866838699
H            1.52490347116979       -1.86502912214402        0.35992321909769
H            2.62982757928996       -1.21213485490227       -0.84447772374221
H           -0.07454522078601       -0.00869471940523       -0.09161288348836
H            1.47464846991670        0.55770274302317        0.51067982138018
H            0.86054869137069        2.03466268854249       -1.25911316543908
H            2.23079226088671        1.06881964947921       -1.78210320350598
H            0.77331722031709        1.19440464315942       -3.64916902040449
H            0.72976872751525       -0.43852568464697       -3.03576038400547
H           -1.53152622906285       -0.30437188900293       -3.08578683419828
H           -1.36494229175718        0.68539863251258       -1.64159056584279
H           -2.24899503808826        2.38243297053127       -5.34687531824382
H           -0.53298255926915        2.27051839783791       -4.98734476326421
H           -0.92382151736608        0.69478888011607       -6.58360360905342
H           -0.66720925855760       -0.22921556586607       -5.12733367218188
H           -2.35009108771419       -1.23087432337698       -6.50685581434742
H           -3.11084499591497       -0.73806031246305       -5.01334797850865
H           -4.55990598279067       -0.26325621306674       -6.88389124470296
H           -4.06435658035714        1.28393858017447       -6.22038090165724
H           -2.79514494501924       -0.03697699297222       -8.66348701014374
H           -4.01577032518168        1.22934704026776       -8.71402744946099
H           -2.42370568609964        1.58002656947347       -8.05906278576166
H           -3.71383965952234        2.60238364952755       -3.35215639128250
H           -3.64947911815857        0.99856534286589       -4.07681865160791
H           -3.49714169967003        1.45193513844453       -1.06101807215113
H           -4.91438278455087        1.04326476982567       -2.00414582502081
H           -3.58958217020260       -0.09580593993649       -1.90887314515756
H           -0.26130770146515        3.08615979558672       -2.93750317854781
H           -1.74567223927119        3.83109835672750       -3.53760187517187
H           -1.41435026211519        2.67991738173722       -0.71987176787116
H           -1.28139382670453        4.36028337246232       -1.19357372585165
H           -2.82695368469837        3.55384764850283       -1.34194796254964
