24
 energy: -28.911240961786 gnorm: 0.000215799400 xtb: 6.7.1 (edcfbbe)
C            1.18497921145731        0.14026822225978       -0.31281860071333
N            0.70392821959612       -0.10968036490080       -1.68829216222805
C            0.28137540872648        1.18081629670303       -2.30187396290782
C           -1.00247915205454        1.37847381206738       -2.78571782604544
C           -1.34538610199181        2.59702192461035       -3.35402024984854
C           -0.41976601363692        3.61977840737334       -3.44297899342121
C            0.86265963209536        3.41988420558031       -2.96059552336038
C            1.21473022540016        2.20758257622639       -2.39449707577365
C           -0.39117454618987       -1.09500398508252       -1.60914351637641
C            1.78557715645998       -0.69451399034095       -2.50872664339177
H            1.47063256920881       -0.79919306988080        0.15764767735306
H            0.39337565393809        0.60558394381538        0.27256641957205
H            2.04720382723994        0.80172102302452       -0.31505593999084
H           -1.75974269883332        0.61534594313546       -2.74033524096561
H           -2.34709825201129        2.73582382136431       -3.72775690054045
H           -0.69304033035490        4.56423717773416       -3.88466515209899
H            1.59714537819246        4.20671053272221       -3.02240236657106
H            2.22408320379597        2.08854587423043       -2.03354372659050
H           -0.75420036315897       -1.34480795025838       -2.60409230420336
H           -0.02081576481087       -2.00620660686707       -1.14160189871263
H           -1.20949935777888       -0.70700394632573       -1.00546355890027
H            2.64454386012805       -0.02945750571204       -2.54803206149689
H            2.10053918248381       -1.64746387712460       -2.08648791987778
H            1.42745905209881       -0.85595246435433       -3.52446247291007
