48
 energy: -56.713859436977 gnorm: 0.000208353290 xtb: 6.7.1 (edcfbbe)
C            1.53722358740046        0.02327607064608       -0.32609392479800
C            0.79928407554590        0.06999963995015       -1.65835562198672
C            1.11408984211375       -1.11981105696820       -2.56762366004802
C            0.75652831176703       -2.49170765497445       -1.98781108650135
C           -0.71003407000291       -2.66508544872360       -1.59161422462352
C           -1.68973240449743       -2.58505737897061       -2.76838652490151
N           -1.54701738729333       -3.71796379709572       -3.66293373645815
C           -0.75392260440366       -3.65938402580640       -4.74915653806396
C           -0.57892491384563       -4.71824211301562       -5.58560798171122
C           -1.24975179333104       -5.95713570674008       -5.36732072827580
C           -2.03999813417897       -5.98183818227618       -4.17956545649542
C           -2.15779247042454       -4.88577586269909       -3.38372959015367
N           -1.17425324271476       -6.98372458186008       -6.20670413749020
C           -1.90326504846024       -8.22896779042713       -6.04696368204408
C           -0.94470965250719       -9.34970912330738       -5.64268668154761
C            0.13607449574621       -9.52594363330074       -6.71149690435025
C            0.81339262258740       -8.17596676228934       -6.95619231679775
C           -0.21982721993955       -7.09686673404674       -7.29430594817726
C            1.15311721260424      -10.58363456016757       -6.29768622103408
H            1.19048077399506       -0.79964980096382        0.29388647079569
H            1.37393337859836        0.94738447116726        0.22188020586238
H            2.60632027323307       -0.09150509412003       -0.48759544417062
H           -0.27599519424457        0.13594559139733       -1.47968171046796
H            1.09107291531128        0.97856810754351       -2.18884807607159
H            0.60530804632869       -0.96756666092373       -3.52337027679244
H            2.18587944044483       -1.12021153653598       -2.77601508875820
H            1.03416399448763       -3.26351239409137       -2.71218136081156
H            1.36307892961143       -2.66085179379427       -1.09815761929597
H           -0.83173914686055       -3.63079962555467       -1.09532297867121
H           -0.98676683955632       -1.89210879352847       -0.87606472765070
H           -2.71401122327110       -2.57456068734056       -2.38936884655665
H           -1.52212936410694       -1.66774871425400       -3.33336853142567
H           -0.26295388247816       -2.71826480406458       -4.94257139862296
H            0.06846690636519       -4.57527878488160       -6.43250136863773
H           -2.55470743423396       -6.87453990721328       -3.87152971116351
H           -2.75905463059647       -4.91479471742731       -2.48776844199715
H           -2.35094620583513       -8.47181959648029       -7.01607413592654
H           -2.71303751903639       -8.12706848628981       -5.32924094796404
H           -1.50629455018736      -10.27534500026261       -5.51905284766385
H           -0.47925052908418       -9.10538897580268       -4.68515322660692
H           -0.34453854121253       -9.84846174635022       -7.64154755272052
H            1.36689617460861       -7.87759710119637       -6.06281391338937
H            1.52248679238921       -8.25649869254771       -7.77987560491141
H           -0.76639477455159       -7.38260623999158       -8.19815419877824
H            0.28131392089657       -6.15306626981974       -7.48949279714833
H            0.66193691056785      -11.53926108256179       -6.13615076761211
H            1.90403485498468      -10.71265417701046       -7.07227467259010
H            1.65549531731222      -10.29598878504780       -5.37699546476964
