36
 energy: -50.531010424279 gnorm: 0.000342906104 xtb: 6.7.1 (edcfbbe)
C            0.26072956297508       -0.12211716134322       -0.11814116698480
N            0.30367066199049       -0.76505248587932        1.16739897289022
C            1.21481345526485       -1.70118968741782        1.55383031708177
C            0.90077508373659       -2.06883660774822        2.82640170322104
N           -0.19926475690331       -1.35786188408372        3.19457246536785
C           -0.53885191216696       -0.57062781740127        2.17940363865084
C           -0.81659278584101       -1.38870846163123        4.51686086743431
C            0.00730880241716       -0.54906423520678        5.47251233765368
C            0.28583754561301       -1.03400725500892        6.74315057273205
C            1.01491468679454       -0.26791048955378        7.63618044620137
C            1.47759795453763        0.98251142904748        7.26345241834973
C            1.20379172185818        1.46964721122259        5.99627832946624
C            0.46943260912653        0.70876217687496        5.10400552397194
C           -2.27306649000053       -0.96747809117494        4.41905517748954
C           -2.78129218918994        0.10814443635296        5.13219347241149
C           -4.12172343516998        0.44203184502044        5.02355569908216
C           -4.96002892330505       -0.28997108935999        4.20153492749915
C           -4.45770037603317       -1.36743653927004        3.48932619497663
C           -3.12235961995309       -1.70766622310251        3.60064304997017
H           -0.49135421875189        0.66352909593774       -0.11371934339583
H            0.01175899717685       -0.84776586845482       -0.89401725353703
H            1.23283988609217        0.31263931131424       -0.35099721971904
H            2.00486439713680       -2.03497779295904        0.91254832222379
H            1.37725979883562       -2.77098100062336        3.47956057543692
H           -1.37576297412844        0.10060888766979        2.17501111178353
H           -0.78045006204192       -2.43311981621110        4.85204386241791
H           -0.07710094333397       -2.00715601732533        7.03887345732538
H            1.22194243822226       -0.65101267155433        8.62295005185876
H            2.04755408500476        1.57830299174770        7.95864136002017
H            1.55709709503223        2.44572911687436        5.70208210461297
H            0.24940031616804        1.10460433216659        4.12145146124341
H           -2.13803324614695        0.68013932391362        5.78254728456299
H           -4.50873032696121        1.27519426839239        5.58886069937917
H           -6.00355755721942       -0.02943905495282        4.12168587659048
H           -5.10771641677843       -1.94926653646461        2.85454178454726
H           -2.73894286405861       -2.55934763980629        3.05509091718579
