26
 energy: -38.322074331836 gnorm: 0.000963915815 xtb: 6.7.1 (edcfbbe)
C            1.17059827371392       -0.52498685145997        0.07408607335929
C            0.94808795613017        0.80012188428369       -0.26776655362290
C           -0.34144985805506        1.29934524468743       -0.30872569938650
C           -1.42051276165272        0.47178819844535       -0.01336965338207
C           -1.19027209834190       -0.85728611851180        0.33483097405976
C            0.10144923764169       -1.35348586799190        0.37287487200033
C           -2.81547031589388        1.02177732762287       -0.00976777904813
O           -3.14851373839082        1.65210564602254        1.25910722837601
N           -3.08366466468485        0.80319850995835        2.31969707123017
C           -1.91044038104465        0.61806609187164        2.93301392358686
C           -1.82874061289292       -0.23899680657448        4.01234876283080
C           -2.97102311675264       -0.89538750388211        4.45087846818403
C           -4.17647060261512       -0.66783415911257        3.79428877298519
C           -4.20396915821388        0.18981135523618        2.71703901510429
H            2.17628503055652       -0.91395396912859        0.09896736152955
H            1.77964467606928        1.44323914328704       -0.50886812676006
H           -0.51781776535055        2.32952881928957       -0.57839484808597
H           -2.02440964695286       -1.51288546898297        0.54777375937513
H            0.27101075783301       -2.38778745380084        0.62802402365695
H           -2.93290092835128        1.84700605653825       -0.71229373838085
H           -3.55668290257171        0.24398359539253       -0.22497993699477
H           -1.06570960643784        1.17456018325087        2.55498223952370
H           -0.87904191803001       -0.38321674072293        4.50256548613363
H           -2.92741910904946       -1.56626531660276        5.29456574413538
H           -5.08605124866279       -1.15074141508565        4.11398339495003
H           -5.10192549800207        0.41645561597028        2.15951916464293
