29
 energy: -36.976671629262 gnorm: 0.000776492070 xtb: 6.7.1 (edcfbbe)
C           -0.10408596698835       -0.47295357104175       -1.17576026206566
C            1.41107778525878       -0.54894677691082       -1.24526500401745
O            1.88413183664766       -1.87007788213963       -0.89980897392163
C            2.04088992915038       -2.15725076337084        0.36812588066815
O            1.82717484290956       -1.43916080792199        1.30700541754151
C            2.59011792511378       -3.59522180116862        0.48918957797184
N            2.48919377681209       -4.18862077802789        1.84274538811414
C            1.09359410562402       -4.10363765377311        2.38488961060169
C            0.00413766574164       -4.61397910391599        1.45628458636484
C            2.92040048740166       -5.59776064469060        1.76727001419881
C            3.38934200410935       -3.47197118773840        2.77131064481822
H           -0.55443462006867       -1.23274325431537       -1.80911402780771
H           -0.42519564493180        0.50432258488837       -1.52187054820156
H           -0.44741966627294       -0.60642012630081       -0.15295346268333
H            1.77230046000087       -0.38943232697939       -2.26173761424752
H            1.86627430988680        0.17479947767850       -0.56325304230265
H            2.06328907705618       -4.21874062605647       -0.23475281612825
H            3.64246835668632       -3.55994898029811        0.19313104967201
H            1.07852799774359       -4.67480928635050        3.31480901679646
H            0.89918293550538       -3.05616740939304        2.62107123434269
H            0.15658673688875       -5.64616288434909        1.15327951706352
H           -0.93727566741697       -4.57330494932468        1.99851141720635
H           -0.10644482957745       -3.99194007535610        0.57256086383387
H            3.93741880885762       -5.65933606425499        1.38445547398464
H            2.89477969427618       -6.04701061188551        2.75825073089906
H            2.26843838617275       -6.16629666348920        1.10844110790821
H            4.42277778399302       -3.57304576637266        2.44530131468406
H            3.12590719707190       -2.41604425737936        2.80098523188744
H            3.29610429234101       -3.88704780977079        3.77272767279717
