52
 energy: -58.770150882641 gnorm: 0.000261448087 xtb: 6.7.1 (edcfbbe)
C            1.34858373825299        0.62808298375731        0.43073260182583
C            1.04550939884253        1.17658390601430       -0.95826875234418
C            1.47095699990651        0.23364777971318       -2.08535008250995
C            0.78107669795478       -1.13231386454670       -2.07997811251952
C           -0.74653064612443       -1.09009681568119       -2.15254950974688
C           -1.31526868896569       -0.35395514767419       -3.36820356705125
C           -0.90938857662990       -1.00580913915739       -4.68830526675391
C           -1.60815600291917       -0.40530435412440       -5.91387870679851
N           -3.05247140459383       -0.59331352081399       -5.88978548772567
C           -3.94392859098435        0.32459685127472       -5.55046198648047
C           -3.51114248397927        1.70504024839218       -5.16037153104042
C           -3.68840609375127        2.70219840724097       -6.31932792534217
C           -5.11259447065026        3.23970781967420       -6.41122110079179
C           -6.15732093838064        2.14738671775156       -6.62146694813320
C           -6.23381325086509        1.14425155959793       -5.46732264485273
N           -5.24597939750458        0.07856651373612       -5.58180464548743
C           -5.78891007202023       -1.24458010744464       -5.84478771669976
C           -4.74585316716345       -2.30619773765080       -5.54898487348139
C           -3.47738134101022       -1.92716256944890       -6.29087569078420
H            0.74300665047866       -0.24724032883449        0.65136090205105
H            1.13841612699632        1.38191015389136        1.18557675606641
H            2.39700922321768        0.35063677378664        0.50864430884870
H           -0.02095756378408        1.39915848094199       -1.03611346914384
H            1.58270520769261        2.11888067003505       -1.08849250589637
H            1.29812037833808        0.72990273866821       -3.04382897227508
H            2.54658791349759        0.06322034109496       -2.00456046473877
H            1.16971321700289       -1.71839617266867       -2.91557498857016
H            1.05577588581929       -1.66308114911369       -1.16792073097145
H           -1.11767094135281       -2.11824783352006       -2.15734242243703
H           -1.13380827661239       -0.61127450496976       -1.25238610044193
H           -2.40612878889736       -0.35542509440384       -3.28055501927409
H           -0.97797468331548        0.68327255248205       -3.34896806055779
H            0.16304888954437       -0.88789564462048       -4.83950135543053
H           -1.11484217950470       -2.07659006660941       -4.63146841620909
H           -1.35981425972685        0.64938212254361       -6.01123694750148
H           -1.24288456128730       -0.90684842261742       -6.81448032300559
H           -2.47524327330827        1.69811937821136       -4.83599984563772
H           -4.10324093302298        2.04255501658486       -4.30866398780775
H           -3.40576701896181        2.22725647279127       -7.26095588582587
H           -3.01193217848356        3.54156550593689       -6.15825044360518
H           -5.34877439262795        3.78966359513741       -5.49809536519343
H           -5.16982024207335        3.94557928439092       -7.24011595499556
H           -7.13402559794431        2.62098620859625       -6.72198413226059
H           -5.95542580222415        1.61094514843301       -7.55074553028215
H           -7.21326870829622        0.66667303954955       -5.47487082309391
H           -6.13080773286501        1.66281140250230       -4.51020434036865
H           -6.11835044910323       -1.30533041163999       -6.88787854154410
H           -6.66309280353023       -1.38739590222457       -5.20519973943209
H           -5.09996585538454       -3.28388880621504       -5.86908210055301
H           -4.54621860580151       -2.34573551910282       -4.47671388122640
H           -3.64657443710389       -1.94177803667662       -7.37332759329726
H           -2.67592591675274       -2.62972052295907       -6.06343207867801
