24
 energy: -32.781396589485 gnorm: 0.000337653818 xtb: 6.7.1 (edcfbbe)
C            1.17984471112130       -0.10730074666547        0.20354061103511
C            0.60288876506051        1.02765153963774       -0.62076887274176
O            1.09477852452630        0.98366639946367       -1.98484534793931
C            2.25521638721892        1.58403413957284       -2.23789326805011
O            2.92512271854355        2.19426560869954       -1.46577063674927
C            2.65079409232795        1.42357046268752       -3.72422204470694
C            2.76261393258488        2.79707382118985       -4.39986727503395
C            1.38853803355900        2.98582116411805       -5.03705142882173
C            1.09072711093552        1.59282582091261       -5.57064893133996
N            1.58477160699824        0.69315374921606       -4.48516847583335
H            0.94067997884190       -1.07066653175410       -0.24064992548638
H            0.75298690283076       -0.06920526203278        1.20075445291551
H            2.25941659533069       -0.00765954355788        0.28696913818297
H           -0.48048258861315        0.94527520701585       -0.71818257796700
H            0.87251431793404        1.99556598929835       -0.19174080908152
H            3.59893894633706        0.88238315592560       -3.75190724874196
H            3.00752495488895        3.57021616292410       -3.67475334350683
H            3.54005701893421        2.78757514712018       -5.16276629015825
H            0.65040433017049        3.28321188700339       -4.29230071928660
H            1.39904060404188        3.73172138416905       -5.82663381154736
H            0.03582238637687        1.41322746522589       -5.77064642886695
H            1.66619556624223        1.40215277724113       -6.47761644196724
H            1.90841116019694       -0.20476467549716       -4.85196886964756
H            0.83656394361080        0.50603487808614       -3.79499145465925
