20
 energy: -20.354254813091 gnorm: 0.000566404795 xtb: 6.7.1 (edcfbbe)
C            0.93376163167197        0.00458026635986       -0.09577349957831
C            0.40415537236795       -1.41814729302846       -0.14355528358115
N            0.82016203374552       -2.22745124899856        1.03772121540411
C            0.32437889231563       -1.69773584769258        2.34734571519554
C           -1.18796575293363       -1.60913232061496        2.45535780484811
C            0.46762531734272       -3.64664608159332        0.84761347185627
H            0.46098549869310        0.59602804685482        0.68290909737054
H            0.72139278131188        0.48823824978108       -1.04534461522546
H            2.01206624943274        0.02128356524941        0.04834204702171
H           -0.68474721301701       -1.42498725729997       -0.19736824112596
H            0.79150666803566       -1.91935016539394       -1.03315236444071
H            1.84379180057913       -2.16687677769236        1.08371803902348
H            0.70807422741341       -2.35800603487932        3.12801706512198
H            0.76214249248052       -0.70979315701315        2.49635787233819
H           -1.66716577448181       -2.57448012376077        2.32313135530793
H           -1.43330947122332       -1.25908179141971        3.45470379442419
H           -1.60993203724883       -0.89833639136458        1.75108242523307
H            0.97636791452520       -4.04670056004094       -0.02758461630780
H            0.76143157459204       -4.22980780158483        1.71851869359728
H           -0.60545220560287       -3.74668727586773        0.69957002351699
