22
 energy: -30.594261545946 gnorm: 0.000329534805 xtb: 6.7.1 (edcfbbe)
Cl           1.15918007639484       -0.41207210553200        0.43935876555562
C            2.87310619665644       -0.07422450335597        0.00192875127287
C            3.10432998590062       -0.12203287681725       -1.50099678408678
N            2.62159964327613        1.06130972946732       -2.26926373050650
C            1.15353295497552        1.29104743142348       -2.20897225299293
C            0.79170200792434        2.41297191593652       -3.18899021990848
O            1.48567264667984        3.59189172893974       -2.87629274264054
C            2.87340059258090        3.40946419820867       -2.93136539509433
C            3.31735076103582        2.33062935615283       -1.93391277393996
H            3.14824474418340        0.88043513975572        0.44522882550781
H            3.46825745633134       -0.86101476042429        0.46551262833638
H            4.17962614518865       -0.20966284589206       -1.68099449787767
H            2.60915648642912       -1.00879993073688       -1.90363940526932
H            2.83966959341520        0.86603918218781       -3.25591065866746
H            0.88953401292545        1.58448282458298       -1.19304151461133
H            0.62691836939169        0.37115225835961       -2.46180786138682
H           -0.26967510670317        2.65096251300435       -3.10931368030674
H            1.00825601279240        2.09847957526294       -4.22242892373721
H            3.19110887684045        3.13317533548836       -3.94965190742893
H            3.32231869265198        4.36930125471355       -2.67231680849367
H            4.39723479667247        2.18621484917847       -1.97867851929021
H            3.02712505445654        2.63533973009612       -0.92822129443381
