45
 energy: -82.621135359287 gnorm: 0.000338719382 xtb: 6.7.1 (edcfbbe)
C            1.00099335127115        0.11367654342511       -0.02731975135870
C            0.53379752280195        0.11732904873477       -1.42221857751911
N            0.48954226941540        1.17282244075204       -2.24686711306507
O            0.90059273483601        2.40065239185411       -1.82073409124466
C            0.65771027354611        3.48788671179728       -2.70906026226513
C            1.49891322407481        3.45217859496557       -3.96182140629388
C            2.80112895801163        2.96430541405114       -3.90787806823928
C            3.57760035788231        2.92831565905641       -5.04981934553453
C            3.04432488736875        3.39388388383654       -6.24328230638475
C            1.75444401480441        3.90141008679656       -6.30913484444997
C            0.98013007063081        3.92213603191138       -5.16434450716699
N            3.85342809419197        3.34299757738192       -7.45107337401058
O            4.94285283098418        2.82936313121101       -7.35861523976610
O            3.37065299708718        3.80547540939059       -8.45592881270708
C            0.00429293042475        0.79354210844357       -3.45667803256382
C           -0.25895475737291       -0.54429350645121       -3.37406148479281
N            0.07619116882470       -0.93304158009791       -2.11724381915499
O           -0.00483881473868       -2.16407022625072       -1.53666250995405
C           -0.41657905133455       -3.23316499819265       -2.38329895763004
C           -1.85016567227869       -3.13252790675469       -2.84437902458379
C           -2.81674147545882       -2.60233461480942       -1.99506280780217
C           -4.13048085748724       -2.50624686669138       -2.41119466818680
C           -4.47082006371584       -2.95347902414588       -3.67996233986373
C           -3.52225857917052       -3.50244551118745       -4.53120466521485
C           -2.20801524610859       -3.58387584052108       -4.11107883825594
N           -5.84998733554604       -2.83829623344635       -4.12807766636192
O           -6.62664927589375       -2.30004321381953       -3.37551801891191
O           -6.11083145591770       -3.27637911220404       -5.22215509540471
H            0.50410283510029       -0.67708122568475        0.52946655215730
H            0.80389008404924        1.07934570736864        0.43290067070097
H            2.07599776880839       -0.06640838000524        0.01957715566655
H           -0.41052973152836        3.56008823725328       -2.94481700082835
H            0.93529024387281        4.35059992191407       -2.09496287168936
H            3.20706391008278        2.62253418135931       -2.96770448076264
H            4.58990597799252        2.55480501807952       -5.03277180838191
H            1.37690479438818        4.26704332806294       -7.25167656311844
H           -0.02450935874895        4.31552629715313       -5.20343118677237
H           -0.11457160739767        1.45592399356290       -4.28866761107703
H           -0.66340401877978       -1.19994159805558       -4.11665447953964
H            0.27087714480496       -3.33743598356491       -3.23092439108037
H           -0.29134561836733       -4.10188932284695       -1.72905849767969
H           -2.53955228195234       -2.27459419752703       -1.00449802990511
H           -4.89738831050941       -2.09913664187178       -1.77039510477175
H           -3.82507877082088       -3.85211709095274       -5.50626817561737
H           -1.46163616214295       -4.01017864328920       -4.76441854862171
