30
 energy: -31.963483474434 gnorm: 0.000581351656 xtb: 6.7.1 (edcfbbe)
C            0.93205039703973        0.04771361373120       -0.17465334951429
C            0.18423623273741        0.77314727209637        0.63974337112965
C           -1.26860828696552        0.48759256832799        0.89200887228767
N           -1.61286560560501       -0.30504095016316        2.12767647393096
C           -1.15949272392073        0.36582407055059        3.44803613114546
C           -1.43246254708566        1.86948409865837        3.39882345965012
C           -1.92716187417125       -0.22313213596578        4.63586686077678
C            0.33235684715933        0.12787248006624        3.69090801347761
C           -3.08343164941443       -0.46612149624966        2.10848737029248
C           -1.01911079828176       -1.64848658029747        1.98258716581349
H            0.55833519353855       -0.82643906553359       -0.68307159598790
H            1.95584015619643        0.30835261579978       -0.37691450478339
H            0.59246936094667        1.66627839052512        1.09042873699250
H           -1.82153163706657        1.42612407601132        0.93055370847747
H           -1.64554490031371       -0.09430017034364        0.04737217677828
H           -2.45568594934554        2.10261139523518        3.11645385379480
H           -1.28231217822879        2.27433531166344        4.39629083337654
H           -0.75089122842546        2.39254117532973        2.73567712760232
H           -1.90497053165435       -1.30925512396437        4.65738538903576
H           -1.44457835458360        0.11765458659815        5.54827129884763
H           -2.95830261213974        0.11528346822295        4.67452793412445
H            0.53185820661532       -0.88845893819597        4.01890982287012
H            0.94084958970780        0.34370498636625        2.81930733644709
H            0.65728028705489        0.79321662178825        4.48672175470827
H           -3.40324745754723       -0.81357682418442        1.12765415595170
H           -3.39863666681475       -1.19986095549742        2.84480371322487
H           -3.57938581333466        0.47960189845764        2.31149044706360
H           -1.48562533362705       -2.16127109884988        1.14320642431830
H            0.04783168714562       -1.57464931188019        1.79150454616168
H           -1.18400180961547       -2.24040597830261        2.87864247200632
