33
 energy: -41.935506470694 gnorm: 0.000514555217 xtb: 6.7.1 (edcfbbe)
C            0.87056029652420        0.25738103336893       -0.25973590689845
C            0.34019549507711       -1.10005203900234       -0.70852360357807
C            1.10737825661923       -2.29392163873733       -0.11457192403151
N            0.53977339267662       -2.76618367111628        1.14484524643438
C           -0.13528774870359       -3.90618013898568        1.19796313018659
N           -0.08832779644316       -4.71999013573320        0.05949377692003
C           -1.07562314674028       -4.39733642269416       -0.97830173958464
C           -0.09816346920620       -6.13443906573116        0.38602175904955
O           -1.20466369687646       -6.43999927117002        1.19188673173891
C           -1.09755439248687       -5.79349770197951        2.40530382849001
N           -0.79307838617264       -4.35709798416337        2.27500760078198
C           -1.31098420957067       -3.56493399820565        3.37606472522831
C            0.90387559245783       -1.97205234446192        2.30290532764685
H            0.73749262336744        0.41979485722093        0.80589206871302
H            0.33981607287279        1.04676318997378       -0.78467923290883
H            1.92729094418817        0.35078977021750       -0.49672397925430
H           -0.71920251316070       -1.17803379809911       -0.45417223112774
H            0.42266764780444       -1.15578163397333       -1.79448175999195
H            1.12410028223462       -3.12736422512504       -0.81388407734984
H            2.14124951898940       -1.99680410742046        0.07380607065658
H           -0.71023334756252       -4.78909859645670       -1.92507299265511
H           -2.04083827909146       -4.85561229990850       -0.74785868933451
H           -1.20590249918865       -3.32359618687189       -1.06376032925373
H            0.84450249647223       -6.38115726900056        0.89476596345162
H           -0.18724554169811       -6.71575502699406       -0.53086289149245
H           -0.30100477988169       -6.23885818409971        3.02979085290352
H           -2.05879701615371       -5.91290042102850        2.91067867117089
H           -2.33374454834674       -3.89155135073146        3.57136180651016
H           -0.73189881837993       -3.71146071034209        4.28926052857767
H           -1.34970932868262       -2.51386934286704        3.11740630358639
H            1.88836961116019       -1.54439596646402        2.11836669607931
H            0.21227363842228       -1.14602215085521        2.47207376299219
H            0.97291364947975       -2.58760316856305        3.19459450634278
