36
 energy: -45.963920125354 gnorm: 0.000143412820 xtb: 6.7.1 (edcfbbe)
C            0.38326838715933       -0.04253607983823        0.39363860677993
C            0.20582461685237        1.28019659541282       -0.36141606494920
C            1.05141322960437        1.41876288358433       -1.62887103417793
C            0.59574224817816        0.60434271877835       -2.84331736867862
C           -0.85923785709606        0.81652450507500       -3.26919949553872
C           -1.23804576242199        2.26990662120192       -3.56233321755502
C           -0.44677152039177        2.87464075358749       -4.71540635780426
N           -0.17063237263862       -1.18280858704599       -0.31179260681079
C           -1.46476608785069       -1.31381598913051       -0.52129467405867
S           -1.92636319800771       -2.69157480924883       -1.38030209083003
C           -0.25158916900196       -3.17011174390546       -1.48236255808651
C            0.56759625802775       -2.22327237980554       -0.84183134813411
C            1.94854032227282       -2.41756357701651       -0.80750573863873
C            2.46851375896205       -3.54412506041039       -1.40777749100836
C            1.64611825038206       -4.47791739391826       -2.04069992074554
C            0.27856385700054       -4.30172802362700       -2.08656012936040
H           -0.11754569099862        0.03025146990234        1.36316623527827
H            1.44248864859957       -0.22743986847882        0.56760191364594
H           -0.84685813304630        1.43678266735474       -0.59532535963281
H            0.50366020571300        2.06812404140746        0.33215961800894
H            1.05031794227787        2.47305082185993       -1.90570653842279
H            2.08594758010543        1.15257368044289       -1.40056560750776
H            1.24126285076194        0.87965647086954       -3.67790524492035
H            0.75917100948324       -0.46234560048635       -2.66993537570936
H           -1.03150734780879        0.22514242177884       -4.17158440379798
H           -1.53570718223142        0.42669111909251       -2.50046266657351
H           -2.30025064821529        2.29459234048240       -3.81504851986884
H           -1.10374888439723        2.88144263128535       -2.66837246809468
H           -0.54397729236846        2.26154610776855       -5.60812342342997
H           -0.82360419488829        3.86816059682475       -4.94248452091377
H            0.60828124511414        2.96430839443767       -4.47044613410215
H           -2.18060074574023       -0.60221281522827       -0.14939102279706
H            2.60362955604206       -1.70789363973542       -0.32939003673681
H            3.53419170397065       -3.70719187431986       -1.38781772686184
H            2.08628779510312       -5.34852315717975       -2.49958993202076
H           -0.36500337850707       -5.01623624177676       -2.57289729596172
