37
 energy: -45.630412755011 gnorm: 0.000159179292 xtb: 6.7.1 (edcfbbe)
O            0.38678436999188       -0.40646632507803       -0.34586261879869
C            0.39154439181540       -0.85008971805598        0.98981114485646
C            1.07290380236978       -2.22765075634222        1.04769201373742
N            2.59333647477029       -2.16915483916789        0.99464369383366
C            3.20510912929474       -1.64584941976348        2.26319193403773
C            3.48254052157444       -2.64175883041187        3.38252614699132
C            3.14243983874408       -3.53117393086418        0.70903336333415
C            2.88741274617699       -4.08026665328378       -0.68772114649400
C            3.00313589229748       -1.25572576127163       -0.09307217915546
C            0.53927649623063       -3.05600372345914        2.19555767494252
C            0.26470259063105       -2.49925053043154        3.44283827931298
C           -0.26517370436587       -3.27643849180401        4.45806596497627
C           -0.53463660685663       -4.61803485452171        4.24365094797733
C           -0.28367274072142       -5.17688709934342        3.00261016854525
C            0.24346346067365       -4.40019184196054        1.98512946187437
H           -0.25421199826977        0.30295546636934       -0.45797831811799
H            0.88080358286715       -0.11124009456835        1.63983128426165
H           -0.63329146228769       -0.99023560822825        1.35364829250229
H            0.78122504790473       -2.71607548368228        0.11303901684783
H            4.15550860912856       -1.18261283163503        1.98953928873703
H            2.54915489671625       -0.86088315511308        2.63856795953271
H            4.28453261202996       -3.32988638546310        3.13389125614915
H            3.80557113818745       -2.06938370839865        4.24908192108083
H            2.60446415705400       -3.20857435560334        3.67136012256375
H            4.22218502360652       -3.47284956056147        0.85805139705611
H            2.72461190438191       -4.21419631818692        1.44918119815159
H            3.40727001452851       -3.51619917689222       -1.45586560458021
H            3.27178813332533       -5.09729505308611       -0.71329535132391
H            1.83280488875286       -4.12698216496236       -0.94237742182316
H            2.42757282263691       -1.45458318845180       -0.99297759862424
H            2.82404854718752       -0.22214489156699        0.19059047693335
H            4.06406322687027       -1.38580019684436       -0.29862777953422
H            0.45698252714650       -1.45453781287537        3.63253179964071
H           -0.47217011120339       -2.82918980059743        5.41744860122485
H           -0.94948590953801       -5.22038415039264        5.03588330963875
H           -0.50713164704758       -6.21596291251356        2.81919909414305
H            0.40405733339793       -4.84563584098159        1.01429220557122
