53
 energy: -55.164730639769 gnorm: 0.000274700489 xtb: 6.7.1 (edcfbbe)
C            0.42585811481774        0.96906043648054       -0.19836917843145
C            0.18544811402874       -0.49411764015920       -0.54994632438145
C            0.89445299790852       -1.46519395783634        0.39519893461931
C            0.43814244113884       -1.39479271875626        1.85416292742504
C           -1.05020554351488       -1.66905419614568        2.08065001525668
C           -1.54224953959459       -3.02086706327220        1.55949319979861
C           -0.82159971962916       -4.23829689692883        2.14210239335343
C           -0.91877852766703       -4.38371725946859        3.66292955270215
C           -2.34549793938419       -4.55557645049959        4.19943503866288
C           -3.04385326773060       -5.84204324944020        3.73506193124624
N           -3.15174082613241       -6.94455874105691        4.73585795345422
C           -3.87762085901531       -6.49542464318525        5.97321415336242
C           -5.14230396265254       -5.68163458820388        5.74463805594321
C           -3.93195678819800       -8.09671459880376        4.16172220101656
C           -3.82063106161950       -8.36165995148143        2.66585878274107
C           -1.79900322955927       -7.39514961798944        5.19282635945955
C           -0.93352168583074       -8.11263873574064        4.16968217863246
H           -0.02401067351058        1.22483763494915        0.75767050142263
H           -0.00896891240300        1.61396451478184       -0.95813484876342
H            1.49224640532580        1.17631606787691       -0.14446706169293
H           -0.88741320449746       -0.69553206471887       -0.55841834014051
H            0.55647737561114       -0.67770626879555       -1.56087274503810
H            0.75983952328077       -2.48192348317263        0.01881185524964
H            1.96576328466153       -1.25265211829147        0.36915692665184
H            1.03298764837116       -2.10469389542046        2.43395001384724
H            0.66074647369912       -0.40195889662039        2.24767390949313
H           -1.25589812116288       -1.58933146809548        3.15105990658815
H           -1.63384340517288       -0.88922050968961        1.58969139850198
H           -2.61544899366202       -3.09877814043102        1.75258418349305
H           -1.41650528403006       -3.04774970335079        0.47659764042491
H           -1.21390384823675       -5.13292982963691        1.64956039175223
H            0.23552257194146       -4.17789380656845        1.88288473791787
H           -0.29235515033894       -5.22349301366693        3.97043816914270
H           -0.49845790449033       -3.48960957453950        4.12322329024345
H           -2.31888268437809       -4.48600984232051        5.28636895463335
H           -2.93487243577008       -3.70689899610651        3.85210275453741
H           -4.05941743610284       -5.61703176073304        3.41137495498341
H           -2.50238099274023       -6.23550148762875        2.87719046311175
H           -4.12171603771472       -7.39647859488591        6.54036599140744
H           -3.18956838732518       -5.90411414885189        6.57846171333607
H           -5.85677712741098       -6.17927905937717        5.09443891384449
H           -5.62484553352505       -5.54365797699047        6.70915467946280
H           -4.92608310362110       -4.69620609584136        5.34374511058877
H           -3.62734807761395       -8.98819686813809        4.71275570560756
H           -4.98535871013154       -7.91695876061981        4.37815732084320
H           -2.80193650948541       -8.50984506799949        2.32623337919077
H           -4.36870370203729       -9.27910818905915        2.46266486909194
H           -4.28035843022511       -7.57516359025387        2.07488085424971
H           -1.26925028256158       -6.50978092282708        5.54612774167465
H           -1.95049397583829       -8.05963742637087        6.04690006289371
H           -0.76088052939448       -7.51749563469166        3.27789594062907
H            0.03490963574203       -8.29303782306452        4.63092245872246
H           -1.34121218274493       -9.07867332624986        3.88907002722671
