61
 energy: -69.604005987837 gnorm: 0.000305497378 xtb: 6.7.1 (edcfbbe)
C            2.21398219016402        1.16138662728430        0.39759417936365
C            1.64183918173093        2.35138174572320       -0.36334846334006
C            1.76867588590966        2.21412708824086       -1.88135278849672
C            1.01636814705489        1.02720330048367       -2.48678056829489
C           -0.49419335451063        1.02697523182346       -2.24409543744065
C           -1.23357232660570        2.25742917214097       -2.77349537098511
C           -1.07800047779724        2.50696941887563       -4.27508998467986
C           -1.54448451192473        1.35671237492643       -5.16967811538749
C           -3.01208421076499        0.96023625086978       -4.99681106290966
C           -4.02103831118218        2.08397709303488       -5.24619961873768
C           -3.94695839342784        2.72175045125818       -6.63966453030898
C           -4.23379156477899        1.76139840269466       -7.80449181712985
N           -5.57795572129048        1.86969900724683       -8.44283343376065
C           -5.82805453004182        3.25902778488582       -8.95551591978690
C           -4.65099267983116        3.98768548190393       -9.61604676651743
O           -4.13271223076294        3.24313230018776      -10.69524338363451
C           -5.64188857182322        0.97974606294395       -9.65286707754897
C           -5.23694821020633       -0.49898564385628       -9.56490732710665
O           -6.41317548100275       -1.27325462213058       -9.49298187557672
C           -6.67902033834951        1.58672707251874       -7.46645152331205
C           -6.72563137599218        0.19102927689596       -6.86912771513918
H            1.64023720373468        0.25818391630156        0.20620228391936
H            2.19156690367131        1.35371098702637        1.46755507063144
H            3.24615656460094        0.98310330966609        0.10423076492156
H            0.59511673540614        2.49146936657755       -0.08726510989605
H            2.17939805501884        3.25321217733780       -0.06078008813767
H            1.42207220841446        3.13969539243528       -2.34646915586962
H            2.82679727873540        2.10436900977204       -2.13189278102343
H            1.21168960589210        1.01091306139787       -3.56160281198791
H            1.42484833908980        0.10169666528758       -2.07755850309519
H           -0.91415111195990        0.12594926574270       -2.69778320103290
H           -0.68278391193317        0.95680817114151       -1.17162667142084
H           -2.29331718613377        2.15318628315690       -2.52823114552713
H           -0.87322510376082        3.14248816058455       -2.24689953234345
H           -1.62460487360418        3.41828287790624       -4.53090318874802
H           -0.02678815610063        2.69739602904122       -4.49571566278520
H           -1.35619661158731        1.62642853999952       -6.21240400299755
H           -0.93525969129457        0.47710569615482       -4.95902247299716
H           -3.21480924991955        0.11212074696335       -5.65766596343170
H           -3.16351468655405        0.60184838944896       -3.97838121178402
H           -5.02434001703942        1.69884877330771       -5.05635989611039
H           -3.84361467354274        2.87475108367226       -4.51701245863670
H           -4.61938242522221        3.57890013394419       -6.65745653081480
H           -2.93837714947801        3.11480904659483       -6.76865619305205
H           -3.50559496744786        1.89992169632146       -8.60421989930432
H           -4.12576736237265        0.74368163650145       -7.43659532968292
H           -6.64191108619273        3.19320996054973       -9.67958985479468
H           -6.16369777091203        3.88686931652613       -8.12941007722327
H           -5.05304408583630        4.94775955455414       -9.96290177186017
H           -3.85996631085282        4.19986248074586       -8.88614239384379
H           -3.59815654295189        3.81098901177610      -11.25995002747859
H           -6.67724688226898        0.97668937529197      -10.00193731658772
H           -5.01910199823574        1.46065329281611      -10.40607376548083
H           -4.68583039028342       -0.74125162220905      -10.48096577138007
H           -4.58097960408326       -0.71879804529273       -8.71519914215793
H           -6.21977589106956       -2.19730079860580       -9.68173985254976
H           -6.58317687201299        2.31609878148519       -6.66038037728609
H           -7.62152943373686        1.77255467797549       -7.98556199300823
H           -6.92721118713819       -0.56129595847712       -7.62346440967231
H           -5.81986804357728       -0.06468029917760       -6.32847485097910
H           -7.54714273155503        0.16970597850256       -6.15725610380274
