18
 energy: -19.342066850877 gnorm: 0.000550761376 xtb: 6.7.1 (edcfbbe)
C           -2.15542626907263        0.00763983805345        0.13018506684292
N           -0.74948392877274        0.01972724711221       -0.29029739066689
C            0.04687612228213        1.15400806993580        0.23954819106950
C            1.47494866936863        0.76640959454393       -0.12068321730561
C            1.49924806958249       -0.76235895900085        0.05583050358686
C            0.02332066768645       -1.18269916781783        0.12120042591820
H           -2.66599646672757       -0.86080553875915       -0.28251363278596
H           -2.21345612915435       -0.03327721394941        1.21691318591020
H           -2.65920123541713        0.90924417017768       -0.21414729005547
H           -0.71434633573158        0.07607664575726       -1.31360483089332
H           -0.27479511287071        2.09940513592536       -0.19495692664384
H           -0.09038439136889        1.18999668956532        1.32190300869592
H            1.69519726715457        1.04137329466708       -1.15215450457827
H            2.19988723393317        1.26537699035858        0.51617333438736
H            2.01787374957413       -1.24237174854102       -0.77053031413514
H            2.01281177418972       -1.04433811770497        0.97164708473507
H           -0.26773407363580       -1.43647349214261        1.14167499849839
H           -0.21066961101993       -2.02688343818087       -0.52604769257994
