55
 energy: -65.956292890724 gnorm: 0.000494701046 xtb: 6.7.1 (edcfbbe)
C            1.74576823030911       -0.36070832017942        0.40505539623525
C            1.03469313196870        0.98697350224316        0.42862616386704
C            1.27061551139545        1.81703908150833       -0.83378818873319
C            0.78218007899366        1.17183944781583       -2.13246043532360
C           -0.70432225916845        0.81085548179319       -2.15818956410299
C           -1.66003195205557        1.98000985117658       -1.92117046070854
C           -1.58917663702243        3.06785011160362       -3.00428603547649
C           -1.91565465552781        2.52197489647733       -4.35718589934679
C           -3.19999173393948        2.07011642819618       -4.64824126686159
C           -3.50774092180245        1.53262943584366       -5.88152841177367
C           -2.53323543711564        1.43303709340476       -6.87053071097462
C           -1.25468422796135        1.89311183990064       -6.60116333359035
C           -0.95804630071168        2.42613943960734       -5.35709828753582
N           -2.90676892453181        0.85188891438041       -8.18430228430999
C           -3.92974072679926        1.73478327451749       -8.84832814775742
C           -3.41251807474975        3.12079937910007       -9.13167932141655
C           -2.91635444421366        3.43792059393069      -10.39252848909098
C           -2.45033488276661        4.71253654659004      -10.66211339182266
C           -2.47278459642131        5.68223031605090       -9.67379021429641
C           -2.97348448384089        5.37659661171324       -8.41935977213049
C           -3.44564483496076        4.10441557280709       -8.14906734620720
C           -1.75290899740008        0.70273815249791       -9.08902656198954
C           -3.47918841273457       -0.49435310075699       -7.97163090275852
H            1.33479787368630       -1.01121949508413       -0.36289767546171
H            1.63349086461710       -0.86022763682012        1.36390290780092
H            2.80795832124237       -0.22744093188782        0.21246916070645
H           -0.03512956642039        0.83215330112467        0.58044415660755
H            1.40172571296332        1.56231569465911        1.28126058465036
H            0.79216209005340        2.79063592026455       -0.70764942250000
H            2.34359232956693        1.99734043339492       -0.93404990415862
H            1.00705280723414        1.85104999614055       -2.95747296637540
H            1.35258456141768        0.25901157275943       -2.31075803255044
H           -0.93257203332348        0.35525564473355       -3.12673282594269
H           -0.89752600729099        0.05667892203476       -1.39440219585028
H           -2.67845914025519        1.58822858348877       -1.87651099157836
H           -1.44460120056722        2.43994622909121       -0.95736623080213
H           -2.30840209501533        3.84988325879132       -2.75006942466153
H           -0.59504180244328        3.51302920901579       -3.01233804645260
H           -3.97449383583852        2.14253077364745       -3.90055679026142
H           -4.52116542241750        1.20429180935953       -6.05330013192560
H           -0.46433576629246        1.85464377818256       -7.33027874906607
H            0.04586607893059        2.77506222394304       -5.17200149897636
H           -4.22640896862653        1.24830222479725       -9.78019182381508
H           -4.79973020571516        1.79355775478215       -8.19321984694958
H           -2.91128408292320        2.69326116934195      -11.17579789940060
H           -2.07602286802275        4.94832620603237      -11.64590021380459
H           -2.11282016761145        6.67669639029683       -9.88479187919133
H           -3.00761015469332        6.13238668940381       -7.65058442616414
H           -3.85145398449469        3.88333006354920       -7.17333625140669
H           -0.99910617526985        0.06375327180225       -8.63324201113885
H           -2.08430968835022        0.24169997103580      -10.01825064288581
H           -1.32558342385457        1.67610784186909       -9.32091424805985
H           -2.76152573376937       -1.11260615059366       -7.43423031023268
H           -4.39616529473538       -0.44371648818509       -7.39092400469328
H           -3.70311747063424       -0.96019278119440       -8.92993089938633
