33
 energy: -43.610916595098 gnorm: 0.000342711208 xtb: 6.7.1 (edcfbbe)
O            1.42037350792204       -0.76287070558588        1.00829588142967
C            2.56990875250235       -0.42477359661676        0.98033278021641
C            3.09059331868107        0.95458203984778        1.21580022425151
C            2.21717279904504        1.98930990612703        0.49118508671580
C            2.69756950918925        3.40111492167447        0.80806757179970
C            2.66370469672339        3.65594048859070        2.31088950450003
C            3.51969658322091        2.62704041070953        3.04076281708285
C            3.03716608206597        1.21200851247101        2.73788408312046
C            3.67121953909141       -1.51307709194067        0.75327476679090
N            3.03407273326110       -2.71834679167393        0.30458492618265
C            3.17356599518623       -3.14294433092019       -0.96072367135280
C            2.42827193787921       -4.19327080311953       -1.44519133124249
C            1.49354884305530       -4.80612699071135       -0.61616808617159
C            1.35707455247155       -4.34863573796306        0.68555659988830
C            2.14120885392752       -3.29881499481424        1.12116826020082
H            4.12780276579050        1.04279182742221        0.88188332696537
H            2.25853612425087        1.81316358538207       -0.58560898876274
H            1.18278199994544        1.86586326742083        0.81443646788626
H            2.05899165379941        4.11913791539593        0.29346793224028
H            3.71608591291661        3.53382707544894        0.43676332931730
H            1.63436201587394        3.59335343670212        2.66825419491481
H            3.03184180095709        4.65921020174635        2.52462099885345
H            3.46937461720240        2.79414491429106        4.11716033704913
H            4.56221649091405        2.73186239277526        2.73337386470702
H            2.00808332310621        1.09301542685219        3.08050933047210
H            3.66284600965972        0.48621335736406        3.26276590318850
H            4.40407879381544       -1.16570601425938        0.02527930096959
H            4.16761873651385       -1.66531851480979        1.71594448140254
H            3.89541092862132       -2.63013575467417       -1.57903796014387
H            2.56874160697962       -4.52126126985471       -2.46259516708428
H            0.88843406040529       -5.62091151265061       -0.98075518128282
H            0.64641239389108       -4.79528450631539        1.36202756502188
H            2.07413306112359       -2.92920106431367        2.13254085086569
