31
 energy: -37.221569737161 gnorm: 0.000714486301 xtb: 6.7.1 (edcfbbe)
C            1.04964648056176       -0.07985760494638        0.39373693128375
C            0.16947036485630       -1.02633863914719        0.66466230189234
C           -1.27076282035605       -0.94972119045022        0.24719058097190
N           -1.65590963175240       -1.94558711382908       -0.80209516428898
C           -1.20849672975114       -3.31726304628752       -0.40467955952725
C           -1.68682557473586       -3.69845858899884        0.90960245376406
C           -2.06774542608298       -4.01719668659819        1.99867599421701
C           -3.14612397184791       -2.00557692461434       -0.94550953661136
C           -3.87459557158526       -0.70451656731656       -1.10679250248563
C           -4.74693287389949       -0.49107594685951       -2.07594253496181
C           -0.98040307000630       -1.61306513801640       -2.09317976253545
C           -1.20425948456771       -0.21491124043230       -2.58947271227754
C           -0.21011330469723        0.59289201542732       -2.90949036742446
H            0.79086301597784        0.79665568347539       -0.17734654999395
H            2.06364961902300       -0.13682681675916        0.74823431378159
H            0.44670061700029       -1.87587995475862        1.27260432275148
H           -1.90426356952569       -1.13263146934100        1.11896171205638
H           -1.47495740028619        0.04314301520248       -0.15598445574872
H           -1.57914629530956       -4.03287418291378       -1.14534983599256
H           -0.11586907659766       -3.34929793499629       -0.41168864143389
H           -2.39521490308805       -4.31690971833115        2.95074880784752
H           -3.37251772580424       -2.64987981444458       -1.79895477853754
H           -3.52141123900059       -2.49469971508247       -0.03843255214059
H           -3.73279801862225        0.03309503540743       -0.33091359353897
H           -5.31394513266637        0.42139904790217       -2.13005140532982
H           -4.93901455590491       -1.21643642629744       -2.84961457490425
H            0.09322922004917       -1.76438935178268       -1.95436326143705
H           -1.33824640980454       -2.32338161421844       -2.84517217637008
H           -2.22984298762157        0.08769230044300       -2.73340636496917
H           -0.39155157529702        1.57304371708344       -3.31321497963486
H            0.82302803134197        0.30512487147943       -2.80082210842849
