20
 energy: -20.338518266668 gnorm: 0.000323944233 xtb: 6.7.1 (edcfbbe)
C            0.94021872790511       -0.10712527955084       -0.09968177936467
C            0.48472582887142       -1.19294650230360        0.87040123229211
C            0.94304133209772       -0.96948524855599        2.31849022832854
C            0.49658367598939        0.38560905402747        2.87300980277872
N           -0.99318646130322        0.48278315851028        2.85012954629402
C            0.46846878604947       -2.10919025506386        3.22026122241387
H            0.44722832758203        0.84829783208233        0.07094737057969
H            0.71676486958257       -0.41087650391723       -1.11818418165626
H            2.01409370357626        0.04130574887747       -0.02646800862833
H           -0.60241419509092       -1.31085332166023        0.81970658894288
H            0.90754538217629       -2.14218686085914        0.54130288110801
H            2.03600489126866       -0.95592584713410        2.32880224000283
H            0.83605036072027        0.49906069458519        3.90319961223530
H            0.90975015250627        1.19941688416935        2.27772053936578
H           -1.37801841514661       -0.29659147742158        3.40158523866849
H           -1.32896989237174        1.37360509271750        3.23158585034726
H           -1.31053168088362        0.38068505019374        1.87606791738838
H            0.94486538380558       -3.03703697853670        2.91883548424084
H            0.73666272951805       -1.92704041466255        4.25802500698010
H           -0.60689350685299       -2.27049482549753        3.15046320768243
