59
 energy: -61.492152280162 gnorm: 0.000189347643 xtb: 6.7.1 (edcfbbe)
C            1.90303855903853       -0.80141376619794        0.27586471914334
C            1.40557106163332       -1.17740046280486        1.66638686453083
C            1.62895166551000       -0.07821335027287        2.70623694970285
C            0.90859717813092        1.24076055280778        2.41802608389352
C           -0.61125205796331        1.13214287262076        2.28108194428327
C           -1.33198005218501        0.56397985609557        3.50514178558438
C           -1.12800257991659        1.35242671835960        4.80059440662025
C           -1.54545211051551        2.82303620950981        4.73320717852388
C           -3.00711469468049        3.05882817248238        4.34790306266959
C           -4.03792901785417        2.41405804615595        5.27828140789138
C           -3.91297456398073        2.80032064290967        6.75814428030818
C           -3.96678823477056        4.30105222360331        7.06629983727441
N           -5.29994185521268        4.88059060825103        7.42515405215490
C           -5.78790275337859        4.38231558791039        8.74971109293005
C           -4.99932947750459        4.82675705076972        9.98839387472903
C           -5.63962126152359        5.98313536856915       10.76590963170197
C           -6.92938819574315        5.57757289673162       11.46985179496626
C           -5.17152589096951        6.34986002778897        7.44431464175933
C           -6.30621044127642        4.52818179964309        6.40653736677536
H            1.32664436304457        0.02111977810329       -0.14006875086854
H            1.81216995243446       -1.65043959027540       -0.39751648231889
H            2.94909403997821       -0.50549816459022        0.31308798788334
H            0.34589342647736       -1.43452264091307        1.61682957083473
H            1.93918294896910       -2.07021055217189        2.00090600769300
H            1.32101413769345       -0.45464770318347        3.68433173962657
H            2.69995788445993        0.13113184314220        2.76455627442124
H            1.15286917060705        1.94478806024621        3.21710494610282
H            1.30116329664554        1.66461507500872        1.49210760596197
H           -1.00637916114550        2.12504918682004        2.05263197349361
H           -0.84703169946623        0.49529312950234        1.42700814954927
H           -2.39929282257665        0.50420378333123        3.27788444424832
H           -0.98848224871090       -0.45709043190100        3.67748459048247
H           -1.67949424139191        0.84875467867283        5.59869874155418
H           -0.07273578000115        1.31733343040138        5.07491244038870
H           -1.33736548871242        3.28843453119817        5.70056351087774
H           -0.92133199076752        3.33286135873810        3.99842707066311
H           -3.17761578669512        4.13775053711797        4.28066115655027
H           -3.17580922082781        2.66005870375450        3.34756113715562
H           -5.03376349033854        2.64157062865899        4.89505474999563
H           -3.92156811216003        1.33148262796162        5.22340328147800
H           -4.66396043560126        2.25333985417572        7.32932863797265
H           -2.94482792627378        2.44132571182633        7.10830506114434
H           -3.29651832338889        4.51681340102939        7.89862327503692
H           -3.59877796368940        4.84762645672168        6.19706156002514
H           -6.82207959140933        4.71383127420118        8.85664866483059
H           -5.79537297866593        3.29366897678918        8.69405281551572
H           -4.93446809559050        3.97357621251377       10.66546548990939
H           -3.97406066223462        5.09088669151977        9.72948036126207
H           -4.92473961653305        6.31131480237028       11.52139638429939
H           -5.83338165209774        6.83524263424640       10.11320981322745
H           -6.74862445404704        4.74935604962463       12.14988255467784
H           -7.31195760905526        6.41273576210091       12.04906575541274
H           -7.70417107465870        5.27900891924877       10.76702513410482
H           -4.92266643903960        6.71523529546686        6.44923892428699
H           -6.11347134029050        6.79983721157921        7.75221773241009
H           -4.38949072724128        6.66011772806584        8.13275482595350
H           -5.94458820312680        4.80434982475126        5.41795380071267
H           -6.51139511913020        3.46087678424469        6.42518523061218
H           -7.23550224207530        5.06242708475673        6.59859285762705
