44
 energy: -52.786846162028 gnorm: 0.000495723251 xtb: 6.7.1 (edcfbbe)
C            0.86121311638199       -0.71472010564139       -0.35048147253468
C            0.42696571316012       -1.67610188226824        0.74235745873404
O            1.01368202602142       -1.32292947222870        2.01434351190880
C            2.22774378915451       -1.78789128896288        2.27225317677059
O            2.87799097970471       -2.48530177471565        1.55124399055589
C            2.76121558163961       -1.40432530866346        3.66466284867808
N            2.39282695423413       -0.08857658294678        4.22896167934354
C            0.91492399506532        0.00077417022088        4.52445063410591
C            0.19986168065255       -1.23805798472940        5.07067219271212
C            0.59214736309101       -1.72597041744365        6.46227841651452
C            3.12803643369113        0.16462401736591        5.52080800171629
C            4.50913776605956       -0.46042752371235        5.72050423003760
C            5.09527737029147        0.06369389619166        7.03065317551917
C            2.67574247195148        1.01333464130205        3.24474926155954
C            4.12481320235873        1.38497275888269        2.92026171818127
C            4.87730008539681        0.43447371761528        1.99321808942307
H            0.59457644256979        0.30896290586160       -0.09606275293913
H            0.36053350668982       -0.98224196121336       -1.27550075427229
H            1.93482854806835       -0.78062172956007       -0.51124150075673
H           -0.64909797539222       -1.62674825756288        0.91376963035388
H            0.72364130771020       -2.69818189865613        0.49442437523406
H            2.44209044873122       -2.19083394434023        4.35239980952276
H            3.84455800384546       -1.46465317401865        3.57312549561208
H            0.78291550312881        0.83086321158359        5.22173526825224
H            0.41421636770502        0.25693217836251        3.59077713242912
H           -0.85262820606800       -0.94732411583279        5.10859248338793
H            0.26198101034977       -2.05799042577244        4.35556357131717
H            0.53782370385156       -0.92001238730596        7.19114644993426
H           -0.11327425973758       -2.49161195297770        6.77475814289075
H            1.58273293238906       -2.17454428312283        6.49373691543772
H            3.21281064583182        1.24853119230905        5.62512105966406
H            2.49877856368293       -0.19555960162389        6.33225901834276
H            4.43485372948278       -1.54624171999520        5.78825685939238
H            5.19512514907508       -0.21288106196764        4.91222908294438
H            4.45286774134392       -0.18394988683014        7.87142159248828
H            6.06809898266696       -0.38535314679560        7.20453532788949
H            5.22121295215130        1.14278813857960        6.99896017515502
H            2.17301223508634        0.75031514818212        2.31278392706321
H            2.18991635514151        1.90520996899837        3.64844234614590
H            4.04803608445635        2.34689409042550        2.40732701985497
H            4.70070139338370        1.56682472436394        3.82627808752373
H            4.25272053439355        0.12374493314438        1.15995851989749
H            5.74223191756614        0.94899847449054        1.58374865750681
H            5.24584785303924       -0.45559627900736        2.49516714650576
