30
 energy: -39.083058314603 gnorm: 0.000847152191 xtb: 6.7.1 (edcfbbe)
C           -0.05646798305937        1.07855426835790       -0.80149349674449
C            1.46084369064465        1.04197917208203       -0.84788830587956
O            1.92710933888809        0.31151864094645       -2.00400478106389
C            2.00558132772173       -0.99198262022369       -1.92018060556234
O            1.74105160531784       -1.67573351294726       -0.96879438058709
C            2.53342303354176       -1.54511111506472       -3.26163320028671
N            2.46711090345993       -3.01806651626520       -3.40146577783984
C            1.07320178603790       -3.52903185600447       -3.16769943594305
C            0.03477292409544       -2.85073681023913       -4.01165089365849
C           -0.56796505324918       -3.43669420564965       -5.03084523917043
C            2.88655989454742       -3.37474389038397       -4.76981164348280
C            3.37893068088713       -3.65929498061403       -2.43344037052076
H           -0.45534009307698        1.49534122011760       -1.72250019158237
H           -0.37032233367645        1.70361368923380        0.02830946756213
H           -0.46024978467051        0.08013832753951       -0.65339423710604
H            1.87906694884090        2.04075761850283       -0.97178815084094
H            1.86580185458781        0.57094319815709        0.05134285753123
H            1.96511037840867       -1.07290923232556       -4.06543343879269
H            3.57393651189847       -1.22186592102467       -3.35487198403025
H            1.08028529002394       -4.59950398478998       -3.38042284589092
H            0.84123276591836       -3.38036707774662       -2.11089657081657
H           -0.24981203873710       -1.85261932393566       -3.70997446593201
H           -1.33929455871635       -2.93907660743821       -5.59114839346535
H           -0.33365625617124       -4.44326332881644       -5.33738944011035
H            3.87416481430721       -2.96970523864325       -4.98150868520188
H            2.92465962131842       -4.45721204115468       -4.87489561437199
H            2.17568479310615       -2.97897160471561       -5.49328353326874
H            4.40481361859808       -3.34879972767043       -2.62334561573759
H            3.10088928499997       -3.37672720658674       -1.41945563469872
H            3.31750703420151       -4.74166933268095       -2.52626539251841
