27
 energy: -39.203029183235 gnorm: 0.000247885685 xtb: 6.7.1 (edcfbbe)
C            0.92578280724589        0.30597130453748       -0.34921491804686
C            0.24991380452588       -0.48737109567252       -1.46101188109634
C            0.67998323742530       -1.94980570256888       -1.47675109374724
O            0.17509909298483       -2.63069997121080       -0.30650736336442
C            1.03327135759713       -2.96685323915818        0.63596710918960
O            2.21598750246537       -2.83722922490023        0.63980542003035
C            0.28308942913356       -3.61749174702128        1.84042213765013
N           -1.14165797553171       -3.64766643057831        1.63968702329713
C           -1.72280491069648       -4.73236132675598        1.11205700995487
C           -3.07336682384980       -4.75325726476323        0.83281289797279
C           -3.84038254359134       -3.62528085587641        1.09509685697409
C           -3.21737122630350       -2.50741571487139        1.63646445648876
C           -1.86434736228014       -2.54878878281192        1.89637020375269
H            0.66891230631657       -0.09019088435402        0.63193207325138
H            0.61027086441566        1.34448690712408       -0.38714363914358
H            2.00659537012006        0.27135469594412       -0.45815675702511
H           -0.83595941227362       -0.43589241419173       -1.35592982214657
H            0.51542274040983       -0.05937165558497       -2.42742671526763
H            0.24990667820040       -2.47712870603337       -2.33039781626716
H            1.76891571069820       -2.03810013367695       -1.49164192439852
H            0.68474018362970       -4.62551462761008        1.96501976964870
H            0.54230230240154       -3.03561399778103        2.72850993335104
H           -1.09371238732336       -5.58858692285635        0.91734981301016
H           -3.51647312371293       -5.64253919015117        0.41364954165303
H           -4.89791632692034       -3.61695086637470        0.88248480369290
H           -3.77499752272243       -1.61085893265757        1.85582620248752
H           -1.34415377236481       -1.70049322014505        2.31653667809788
