19
 energy: -26.670784992480 gnorm: 0.000844760321 xtb: 6.7.1 (edcfbbe)
C            1.29327991208707        0.10805020276111       -0.17235079110724
C            0.42138868914742       -0.34096466756715       -1.34213271348028
N            0.82233007912967       -1.66629492547788       -1.79488099991697
C            1.75427751800300       -1.78855557712220       -2.73952686314063
C            2.18624022190595       -3.04041756804096       -3.14716779168258
C            1.65196827665160       -4.17197182162297       -2.56939554676132
C            0.67503803240708       -4.03503394946424       -1.56721694177630
C            0.28856915387509       -2.74364806093369       -1.20840470624217
O            0.17296205073852       -5.12865954858419       -1.01990296528346
H            1.19241248968161       -0.56692890158244        0.67380067991144
H            0.98400156747290        1.09990345957792        0.14316514713266
H            2.34015926028207        0.15187495957633       -0.46170424984199
H           -0.62657375956863       -0.37180798720153       -1.03886690165276
H            0.52280066855772        0.35921351318353       -2.17272844294837
H            2.15104158294948       -0.88283919112704       -3.17142008633220
H            2.93672545622940       -3.11836806226410       -3.91717972480958
H            1.95741285550102       -5.16430538164154       -2.86163985644791
H           -0.45956316667459       -2.57352318231588       -0.44605898407743
H           -0.49625088837635       -4.96627331015311       -0.33980826154289
