23
 energy: -23.520991689558 gnorm: 0.000364065021 xtb: 6.7.1 (edcfbbe)
C            0.92843547250183       -0.04691476616082        0.01825481483265
C            0.44944621390680       -0.36356338774836        1.42405460488367
N            0.68966793742727        0.80692614110450        2.36123290266618
C            0.40262343848311        2.22548839226508        1.93548256469578
C           -1.08845982971523        2.51169440478127        1.94683869789743
C            1.14613737074532        3.14074667143729        2.89929277109690
C           -1.00391324323448       -0.80536856887085        1.45808185401306
H            0.27480078016600        0.66391472899352       -0.47934599897713
H            0.92007708492185       -0.96180086606432       -0.56752740910530
H            1.94714261682065        0.33334835312376        0.01755461074937
H            1.06265952594609       -1.17441367069869        1.83274642256647
H            0.14937485811310        0.63264554421610        3.21822309388449
H            1.68277669860943        0.79080578312585        2.61809397893089
H            0.80660276591630        2.35343506696157        0.92952756979450
H           -1.53026345420183        2.26225860814361        2.90922927498170
H           -1.24645379769485        3.57297428286366        1.77682161356680
H           -1.61635195764583        1.97748802850889        1.16419464323151
H            2.21555367286568        2.93897287949442        2.90264521053466
H            1.01325025502260        4.17498698009471        2.59632663668167
H            0.76253177122451        3.04200195326352        3.91248703348628
H           -1.08754603389171       -1.76978370111290        0.96447922968967
H           -1.36083994766450       -0.92902223098291        2.47814708720270
H           -1.65623219862196       -0.11475062673892        0.93432879269597
