108
 energy: -161.841677937475 gnorm: 0.000227670585 xtb: 6.7.1 (edcfbbe)
C            2.09584357119687        0.21081509754328       -1.80313602832300
C            1.73076391708589        1.22743636269545       -0.72308910284994
C            1.88781554673291        2.67748451505685       -1.18624365015978
C            1.02950196749183        3.06755909230548       -2.39105439465633
C           -0.46969281693547        2.92536688230758       -2.12841736083685
C           -1.33614540858886        3.67664820951797       -3.14238307497777
C           -1.20488669836517        3.18395451639859       -4.58446404500513
C           -1.81207265116820        1.79990285505129       -4.83813184574273
N           -3.25462371121724        1.82590304991966       -4.91018223985466
C           -4.16001554838905        1.54562729444541       -3.92260002328612
C           -3.77265095998810        1.28989449099787       -2.60824727470838
C           -4.53448285670196        1.18798975003377       -1.45821991675256
C           -3.97838485788887        0.71524051160334       -0.28008413757588
C           -4.57096636150852        0.37332846023405        0.93228135140831
N           -5.84287639299569        0.58346108468533        1.38668248179632
C           -6.94390620947957        1.18068125377568        0.67056881467851
C           -7.59962444992006        0.18329837396330       -0.29498375494663
C           -8.50460209602422       -0.83319378784454        0.40430224919526
C           -9.82885808603510       -0.26116646014471        0.91489354598148
C          -10.76219054363417        0.28152027616046       -0.17041809391825
C          -11.14237469136416       -0.72006760137059       -1.26292134186120
C          -11.82153583734113       -1.99422027267857       -0.75795446426833
C          -13.13898558481106       -1.72848712408186       -0.03971867693661
C           -5.96360568356507        0.03608458207389        2.64505504616685
C           -4.71969022404026       -0.52634940019699        2.97538083099525
N           -3.87792090960711       -0.29332069042406        1.91322213950735
C           -2.52751946815925       -0.79746235417171        1.86921736900845
C           -2.45502366093394       -2.23695008201228        1.34040323786400
C           -2.63145362816911       -2.34945864788236       -0.17440843411564
C           -1.52535601872101       -1.69440350863365       -0.95873679363498
O           -1.65301957521909       -1.27398392413651       -2.08995590704661
O           -0.37844034053384       -1.61564008577029       -0.30926434474353
C           -4.51559901151749       -1.16902400094145        4.18459847533770
C           -5.58286433875672       -1.22755032340447        5.06900525994861
C           -6.82223343821942       -0.65592395454128        4.74632178822956
C           -7.02641424096175       -0.01836833096335        3.53149623803454
Cl          -8.12139964367532       -0.74602416162907        5.86822725866437
Cl          -5.37397714753090       -2.01757664228509        6.58081438669236
N           -5.41593418571339        1.57412403081073       -4.47104690090507
C           -5.30272629813549        1.93038450816191       -5.79926503362159
C           -3.93519875037890        2.09399648657671       -6.07369988902923
C           -3.49522413948848        2.45884096663812       -7.33510946913604
C           -4.45579189381626        2.65981810050534       -8.31592312947702
Cl          -3.95404742101317        3.11694214884420       -9.89508387969659
C           -5.82232729511129        2.50407682021782       -8.03881688051580
C           -6.26197752977441        2.13669160281768       -6.77492804397986
Cl          -6.98058807387627        2.77251509304510       -9.28022785197994
C           -6.61592842055214        0.95935120934408       -3.95068109162328
C           -6.95998789155159       -0.36557979806824       -4.65287589127645
C           -5.74047776387055       -1.26297385520328       -4.87631487888454
C           -4.83538681929783       -1.39474649007607       -3.66856743770756
O           -5.20367218934544       -1.44213213961166       -2.51924770664663
O           -3.56748219941771       -1.44034045672106       -4.03780262813822
H            1.32940983527694        0.14887711559982       -2.57394032926141
H            2.24802161743596       -0.77857309903080       -1.37145054188699
H            3.02913076593862        0.49741511551642       -2.28198506806291
H            0.70657126409083        1.06521910411722       -0.37728601913599
H            2.38816982857706        1.07905457702727        0.13604643088549
H            1.64221911703968        3.33578517891993       -0.34965896271541
H            2.93570104424954        2.84882839932183       -1.44047369807019
H            1.24738507230155        4.10954073928862       -2.63417832396435
H            1.31918281360035        2.46148829553050       -3.24994665245589
H           -0.73542499392727        1.86733942180543       -2.11685427653257
H           -0.69294073478578        3.32847114879220       -1.13769003289274
H           -2.38257767675168        3.61622142991135       -2.83410984130364
H           -1.05041883255019        4.72991347271680       -3.11929212691290
H           -1.69590121902067        3.89943097201107       -5.24726676027577
H           -0.15137829733443        3.15140066382546       -4.86016663267494
H           -1.45875981533175        1.42101008446858       -5.80031983992865
H           -1.50348065216515        1.08805643193488       -4.07299917389482
H           -2.71883311583709        1.09874610358086       -2.48395497738470
H           -5.56570413340811        1.48505271127738       -1.47869519544510
H           -2.92811565560226        0.47619703217159       -0.34452375638245
H           -7.67100489303339        1.51887336141863        1.40918502179536
H           -6.57861997483937        2.06562903299747        0.14497254596900
H           -8.18576168803127        0.74081885612731       -1.02585396895405
H           -6.81760045822172       -0.36311698935039       -0.82685538628993
H           -8.71818167608036       -1.63720066980683       -0.29993084392816
H           -7.96452811092560       -1.27913301122601        1.24256489182195
H          -10.34437221780996       -1.04838424416586        1.46590986958801
H           -9.63895500968171        0.54873615489417        1.62366933551905
H          -11.67188749827376        0.63518265970492        0.31654856601939
H          -10.30347192357952        1.15194043411005       -0.64664916328495
H          -11.82111961608972       -0.21713118917775       -1.95608052226537
H          -10.25044889434371       -0.99790147863550       -1.83000344442495
H          -12.01471402208855       -2.63705785199666       -1.62004044976584
H          -11.14761568030131       -2.53815631755364       -0.09370522255447
H          -13.80584915038879       -1.14507128711138       -0.67058084980637
H          -13.63123781529506       -2.66778454852164        0.19986283266519
H          -12.98029685239359       -1.18619991511697        0.88880951610185
H           -1.90205809543246       -0.13332281315306        1.27192061007882
H           -2.14436625214116       -0.77408366654587        2.89149835002469
H           -1.48481964345494       -2.65056959857642        1.61554590510608
H           -3.22891873923049       -2.82936115647944        1.83026253118052
H           -2.61349229381890       -3.40760156698577       -0.45313488093232
H           -3.58893435823892       -1.94741071013889       -0.51387514216266
H            0.32752315432003       -1.22524160363908       -0.85819368928662
H           -3.57427523826689       -1.61716363178626        4.45314795460730
H           -7.99189375700261        0.40372252001405        3.31308063541944
H           -2.45317028202797        2.59523935844810       -7.56863788539630
H           -7.31600037498275        2.03482167107789       -6.58194919889572
H           -6.46480853466374        0.74057777761077       -2.90053413347220
H           -7.44724567830573        1.66156729621966       -4.05557114502242
H           -7.68368453879224       -0.88042046357491       -4.02052747329356
H           -7.42461918132748       -0.18277476065576       -5.62114041925959
H           -6.08357809158384       -2.26748255919732       -5.13385322225120
H           -5.13405609262733       -0.90256659605506       -5.70865890317135
H           -2.93725379238167       -1.48390092447552       -3.27680169763821
