24
 energy: -36.038290124618 gnorm: 0.000522343407 xtb: 6.7.1 (edcfbbe)
C            0.64490185204680       -0.03252470689749       -0.22760653357552
C            0.36125492467488       -1.48594776806880       -0.56066778930329
O            1.23074217934240       -2.37592037469758        0.17946143439864
C            2.44414644868335       -2.56917864758636       -0.30253300618747
O            2.91987477890292       -2.11401905729424       -1.29348341305103
C            3.24511602392197       -3.54348548077741        0.61522029601337
N            2.53446432310971       -3.85755787928907        1.82678198732308
C            1.68239544939901       -4.89070605367932        1.85083581969137
C            0.92884844954632       -5.16769053290328        2.97210887538370
C            1.05204906135297       -4.35580526109689        4.09271309024254
C            1.93663615043266       -3.28525402803269        4.04553679715601
C            2.66266498174146       -3.05951694413547        2.89531933981848
H            0.54777018322656        0.14335578121833        0.84095394734180
H           -0.06974513683073        0.59533034731865       -0.75056837779563
H            1.64586627134036        0.24397603958740       -0.54905412442890
H           -0.64437371932488       -1.77868558318006       -0.25712380398776
H            0.50269332401003       -1.67129797794811       -1.62815446308539
H            3.43775301394143       -4.44588788646197        0.02968621794701
H            4.20395050313768       -3.06727778722993        0.83259355340737
H            1.61154329533370       -5.49702076304047        0.95970794494761
H            0.25407377020981       -6.00891934704331        2.96574341310862
H            0.47322833004105       -4.55261380383564        4.98147439141696
H            2.06380726981410       -2.63031791941571        4.89294025664460
H            3.35849827194599       -2.23667436550984        2.81916414657417
