38
 energy: -55.416339273241 gnorm: 0.000482170508 xtb: 6.7.1 (edcfbbe)
C            0.06959493456245       -2.02875146770436        3.56082049630773
O           -0.46042770286050       -3.07901971443100        2.78359600820745
C            0.05833902831404       -3.33925799320949        1.56909649690772
C           -0.54001957651123       -4.40078242160875        0.87205550699378
C           -0.09940036068992       -4.75582656810663       -0.38478458828512
C            0.94394448161927       -4.06612409864188       -0.97531261397028
C            1.55921334795239       -3.01222413505930       -0.29312039085697
C            1.11246102776557       -2.64809764433648        0.98474254196591
C            2.65227536049461       -2.33476218994657       -0.97687879290892
O            2.97226261056313       -2.52696919308495       -2.12828274202050
C            3.46475134475842       -1.27842550357679       -0.16476133695323
N            4.64761680163367       -0.97057631958977       -0.91111224397337
C            5.92886004856991       -1.30981551480874       -0.58892902160233
C            6.69682497805316       -1.05959277975331       -1.68263202380272
N            5.87499654441948       -0.59111554471964       -2.66316893509352
C            4.63904350321254       -0.55029010799430       -2.17666815160024
C            6.30761943045356       -0.18122780612381       -3.99485994827735
C            5.23899780974189       -0.50252434763598       -5.03218239229508
C            6.65375196582515        1.30649205111225       -3.97371788342886
H           -0.51411390395463       -2.02301368051290        4.47903059285764
H           -0.04086531079097       -1.06280444311133        3.05864837981834
H            1.12211010994587       -2.20262460214021        3.80523535318510
H           -1.35326343901925       -4.92208058329386        1.35098121541191
H           -0.57112813690625       -5.57182106622616       -0.90876832944333
H            1.30210754865884       -4.32846130217301       -1.95809850974616
H            1.56805895446331       -1.82360101474368        1.50780296162120
H            2.84002149558667       -0.38884747164474       -0.04474141610720
H            3.74444366532362       -1.66858936297699        0.81318993612062
H            6.20090334827524       -1.69341512730456        0.37276410633251
H            7.74978079917513       -1.18946801104026       -1.82694412418908
H            3.77068580894313       -0.21847712890245       -2.70838836212570
H            7.21135305290430       -0.76045934823419       -4.21105909259379
H            4.40287460614395        0.18875812671726       -4.96816530596641
H            5.66770992309433       -0.41387271957134       -6.02588760027384
H            4.87077422713788       -1.51824822109699       -4.90907390935821
H            7.43145550093120        1.51725537453888       -3.24299609018801
H            7.01422354348036        1.60758278982861       -4.95254704137435
H            5.77568262873624        1.90221909106108       -3.73378274925394
