73
 energy: -83.614702925504 gnorm: 0.000247691928 xtb: 6.7.1 (edcfbbe)
C            1.35590719677619       -0.52660037520310        0.39650882114743
C            1.16721510056509        0.65296713920872        1.34304551631625
C            1.54706445424270        1.99620947048191        0.71785752171103
C            0.71375198286698        2.40153367554315       -0.49975540745680
C           -0.78859899025483        2.53200071043676       -0.24257782241350
C           -1.17679520671295        3.56433920780674        0.81780361130679
C           -0.72506408021690        4.99665779522679        0.52411676682829
C           -1.22026993885571        5.57303954866428       -0.80401677425407
C           -2.74002758650115        5.58351017616167       -0.97798634853396
C           -3.50489561467686        6.39476847964240        0.06928360329762
C           -3.17024987050444        7.88759929827703        0.10166704985617
C           -3.40458068765215        8.63226294720142       -1.21506538054429
C           -4.81655147415656        8.50272558348882       -1.79095516151545
C           -5.93916385315245        8.98952558891294       -0.87111437276577
C           -5.91737565340179       10.49762353732963       -0.59417826547472
C           -6.25981936845139       11.37060897772289       -1.80742512789323
N           -7.66405659115171       11.87673289628936       -1.89168101861824
C           -7.95492326966723       12.87974856841478       -0.80527303945797
C           -7.08878507332827       14.10785825897451       -0.84362591098533
C           -5.89413134126306       14.16133767767418       -0.13212676508836
C           -5.10862647468539       15.29710701759789       -0.14984979075879
C           -5.50737145508928       16.41568108219564       -0.87920072527840
C           -6.71499345635263       16.37381904390984       -1.57993792499949
C           -7.49152899689990       15.23735392607116       -1.55579462012048
O           -4.78728569345334       17.54527214283030       -0.93644486878124
C           -7.83273540784573       12.52206952672386       -3.20691231978459
C           -8.63476198438673       10.77472749277715       -1.78788236058123
H            0.67123861104924       -0.46816459707128       -0.44576193700941
H            1.16854282079120       -1.46218569636850        0.91870314723156
H            2.37371429946926       -0.54730344142861        0.01276521612570
H            0.13170566727082        0.68192472395340        1.68669508548910
H            1.79613964989448        0.50070314818115        2.22374564372482
H            1.47048709699753        2.77179956584402        1.48292498579713
H            2.59456301033247        1.95039953064782        0.40859115283826
H            1.09935148102867        3.35190820118326       -0.87544367493590
H            0.85975971985496        1.66477504656901       -1.29205693286238
H           -1.27570264947838        2.78392877406152       -1.18742914230518
H           -1.18364185336928        1.56279641711077        0.06801783931294
H           -2.26331095778793        3.54449507315323        0.93207254729662
H           -0.75243218586849        3.26651713234208        1.77852293100845
H           -1.06084965419680        5.63567326909856        1.34442242701363
H            0.36589186011749        5.03351453496239        0.52121732323449
H           -0.83618282205631        6.59143724886598       -0.90023740819013
H           -0.79190403934074        4.99436726739379       -1.62436116794234
H           -2.96786457329637        5.96825208334917       -1.97493585855846
H           -3.10834074784822        4.55690737218765       -0.94318380260774
H           -4.57513069296273        6.26481953310110       -0.10982446205277
H           -3.29849236140521        5.98269588742037        1.05814539387765
H           -3.75678627296307        8.35477459903932        0.89714670549706
H           -2.12061108434937        8.01074852045947        0.37204329644262
H           -3.16117589309966        9.68734995250396       -1.06397922608925
H           -2.70674834492137        8.25466242377028       -1.96337555124653
H           -4.84773639675248        9.04278184972044       -2.74148254809123
H           -5.00567503155994        7.45368082348155       -2.01893682313934
H           -6.89493197723835        8.69414676949405       -1.30696152290511
H           -5.85171833498113        8.47234213212975        0.08396002634056
H           -6.57967042648470       10.71577746953032        0.24400116052867
H           -4.91110893931024       10.76034049577750       -0.26763134179880
H           -5.61789936492650       12.25320143149141       -1.82575025909435
H           -6.06744434837202       10.79591097990726       -2.71511496040767
H           -9.00260636609733       13.16833779595232       -0.91133375405079
H           -7.83426005803935       12.37436567891762        0.15356688567427
H           -5.57745302183634       13.31577015704342        0.46058333576288
H           -4.18739912608189       15.32294850825453        0.41439250245539
H           -7.02492569031791       17.25100011926688       -2.12318450459668
H           -8.43422138449727       15.23808339198450       -2.08258345040902
H           -3.98776254820514       17.48865415004196       -0.39741365661082
H           -7.67312804438998       11.79750004288631       -4.00336642738809
H           -8.84027210717537       12.92329323916707       -3.29909904577626
H           -7.11937079760391       13.33632678300022       -3.31942403976694
H           -8.43292141744478       10.03054762594367       -2.55623740273880
H           -8.57623280722429       10.30135378057821       -0.81103337619972
H           -9.64576856098486       11.15378081084403       -1.92872421314435
