23
 energy: -30.618240552089 gnorm: 0.000578939458 xtb: 6.7.1 (edcfbbe)
C            0.72032540212223        0.00848503665676        0.55550488999151
O            0.18414298607005        1.32361737298005        0.34830201499878
C            1.05945593854666        2.32937192078977        0.35585433259061
O            2.23590194169061        2.24205985860990        0.51130821531585
C            0.34650680473389        3.67212305196839        0.10350896570964
C            0.82410060161677        4.28208349754986       -1.22982747572018
C            0.43862510282399        3.40282919945338       -2.41824254204442
C            0.29412051502440        5.70384664150277       -1.39920917757122
N           -1.13461160396753        3.48686203592311        0.08143051753585
H           -0.07219753733362       -0.68597232732852        0.29164893394453
H            1.00556856257174       -0.11436445916748        1.59999519874330
H            1.59706793208415       -0.14293019827841       -0.07381129228486
H            0.61158012343567        4.34936703554897        0.92126430709093
H            1.91500956149990        4.32098278618960       -1.16436148808519
H           -0.63295975260159        3.41633008568412       -2.61172985559974
H            0.92796525593190        3.77612335400087       -3.31309104634075
H            0.76594392514394        2.37609872174502       -2.27497785149547
H            0.53536953258183        6.32193549987427       -0.53832504153388
H            0.75855355947229        6.15851823177803       -2.26912326968864
H           -0.78292359007592        5.72907569391649       -1.56731355389585
H           -1.50552768985993        3.25851971213858        1.01057977638887
H           -1.56710207893910        4.35252536762729       -0.27238618555024
H           -1.34775549257257        2.70194188083718       -0.55138837249942
