32
 energy: -33.016856230942 gnorm: 0.000329735576 xtb: 6.7.1 (edcfbbe)
C            0.63746458521089        0.38235993322936       -0.35942537389462
C            0.54824302884732       -1.00714074674136       -0.97882265865968
C            1.21207558866130       -2.09070143632830       -0.12547291200170
C            0.59469782886147       -2.28495363218868        1.26137471768307
C           -0.89862985937497       -2.63185949449880        1.27158773896987
C           -1.37358170053315       -3.80108062579482        0.40323487805466
N           -1.16438504836617       -5.20018467735594        0.90134408413153
C           -1.67642206395619       -5.36071221938041        2.27409345442582
C           -1.91517368316872       -6.10687262091055        0.00869937991419
C            0.25633656659700       -5.58718179671982        0.86307994587707
H            0.05116196523336        0.45371831527832        0.55336796879545
H            0.26047118200238        1.12501374984012       -1.05720083466886
H            1.67035114916272        0.62889517811490       -0.12702332033083
H           -0.49872419892208       -1.25555076645312       -1.16792224239294
H            1.05406360793648       -0.99050260182490       -1.94599669454192
H            1.20719926341869       -3.03289386064466       -0.68022079401005
H            2.25903694046440       -1.81824520417707        0.01807551329567
H            1.17948130079329       -3.02906791177699        1.80550290275328
H            0.70214182157804       -1.35334893712196        1.81748987001482
H           -1.22841406094857       -2.75658186883708        2.30290126352948
H           -1.43284879019900       -1.76199684106857        0.88520346677801
H           -2.45136666068621       -3.68760576480737        0.26609616169813
H           -0.90079296229084       -3.73026300634371       -0.57728077292514
H           -2.69737607803915       -4.98887824760974        2.34096649050868
H           -1.66934884485125       -6.41357279202001        2.55115592043029
H           -1.05356251400777       -4.81754911912452        2.98086102369960
H           -1.58940373265085       -5.97799609512130       -1.02209206019635
H           -1.74758324676731       -7.14290712326958        0.29810613492603
H           -2.98252817520194       -5.90036396894630        0.06563992726304
H            0.64897427129629       -5.48291389152497       -0.14641252665905
H            0.83908431936122       -4.95995158587250        1.53143844039137
H            0.36809820053843       -6.62436034000005        1.17486090714076
