50
 energy: -76.876108329854 gnorm: 0.000453426217 xtb: 6.7.1 (edcfbbe)
Cl           0.21109212660503       -1.13068156663818        0.29428658456268
S            1.77749310373473       -0.07539804331226        1.09037329178353
O            1.27443538121605        1.23712404315324        1.28142306197523
O            2.22934715639496       -0.84003809831302        2.20335257323486
C            2.95338183217012       -0.12228789886971       -0.28435894867553
C            3.93569238118301       -1.25169730075669       -0.07676310082183
C            3.29847233043460       -2.64103569595347        0.00400729069968
C            2.54221706527485       -3.03979177998370       -1.26683887636862
P            2.33631383850208       -4.85343295480635       -1.37933885021502
C            1.28990571904407       -5.52957190469842       -0.07930279845282
C            0.51713733095298       -4.72869409784138        0.75402861517080
C           -0.30103988139235       -5.32909806960453        1.69648709039120
C           -0.35832924189632       -6.70950198703852        1.79871009690229
C            0.39431268602994       -7.50623905769706        0.94737602783189
C            1.21605716580335       -6.92128814836941        0.00387425472725
C            1.54427518776018       -5.24936502981162       -2.95293324114843
C            0.41328318986441       -4.52349632278763       -3.32317137691628
C           -0.25219887016683       -4.84786232616594       -4.49069847258243
C            0.19743546236879       -5.89625880608207       -5.27966065831428
C            1.31012098034951       -6.62959495334746       -4.89937574960750
C            1.98478870729405       -6.31455589905794       -3.73302351098941
C            3.99107101250187       -5.56866363529309       -1.31086365450095
C            4.44199982482433       -6.24515985010124       -0.18141530159058
C            5.73667258047262       -6.73415251515401       -0.15222768499175
C            6.57772266582343       -6.54472516249282       -1.23741622592602
C            6.13222771797661       -5.85738953643793       -2.35717553069214
C            4.84159138850121       -5.36423150263201       -2.39712352076030
H            2.36054444098594       -0.20772337001810       -1.18906062993189
H            3.43464206855943        0.85130999637444       -0.25279039816824
H            4.67202841246030       -1.23044536029435       -0.88512971412706
H            4.46508905039040       -1.07643700546677        0.86094274593921
H            4.10655859653220       -3.35650619419437        0.18378852032581
H            2.63626746675194       -2.67409976683052        0.86762372832343
H            1.55686560825323       -2.56932057105382       -1.30927235827798
H            3.11077107833703       -2.75330153497425       -2.15933116795262
H            0.53617187320175       -3.65389091579060        0.66479588111343
H           -0.89771664786502       -4.71216664600484        2.34983472749740
H           -0.99708969360099       -7.16860155971809        2.53699819992774
H            0.33664521392961       -8.58129255823830        1.01841727223042
H            1.80064240851000       -7.53256807721568       -0.67149950316569
H            0.05387535978953       -3.71913826779944       -2.69685485112406
H           -1.12556427094686       -4.28623995601931       -4.78335235319678
H           -0.32526594291673       -6.14639344245047       -6.18956588367658
H            1.65209237647795       -7.45101480130431       -5.50965896539370
H            2.85038124611087       -6.88831209970194       -3.43287044658757
H            3.78453811685570       -6.38630810610364        0.66456441930499
H            6.08885036603121       -7.26271062170478        0.71977011029760
H            7.58424840252629       -6.93181582206345       -1.21106035307026
H            6.79125330024848       -5.70719473784988       -3.19811910158588
H            4.48587232763539       -4.82945048156987       -3.26777126332952
