30
 energy: -35.281205520913 gnorm: 0.000881845492 xtb: 6.7.1 (edcfbbe)
C            1.20507773086540       -0.47370192345228       -0.50775203187679
C            0.60127134772385       -1.72425322074579        0.12115437991928
C            0.91547019703767       -1.86276041366082        1.61085934830876
C            0.23936705160089       -0.80280626553669        2.49261466579930
N           -1.20244016499419       -0.97865614809758        2.49513337065768
C           -1.96058455865726       -0.29085483309013        1.63798478574637
C           -3.33282586743181       -0.48677880963587        1.56031211897483
C           -4.16398985714020        0.27975302489844        0.59261414169443
C           -3.89982241550976       -1.43040931917573        2.41350237354179
C           -3.10783312960735       -2.14718130623020        3.30820264646424
C           -1.74509269807018       -1.88772088978040        3.30986584904214
C           -3.69760024421945       -3.14142779012906        4.24543566542723
H            0.78422977171178        0.44138906150464       -0.09650090132865
H            1.02002111316075       -0.47152126693820       -1.57809491979409
H            2.28042891649344       -0.45320921453624       -0.35163999929102
H           -0.48026513119553       -1.74195598035323       -0.04104270885809
H            1.01323971963257       -2.59741382046386       -0.38590813124221
H            0.61523644930931       -2.85468952557730        1.95507923480829
H            1.99202479417225       -1.77170340251285        1.75737640929359
H            0.60545896522559       -0.89296959726403        3.51692924940558
H            0.47780785736519        0.19483176726553        2.12397245843674
H           -1.46701379776393        0.43381453543502        1.00848559609248
H           -3.58335180230733        1.04104314513082        0.08183264215477
H           -4.58396478363297       -0.39447698965596       -0.15209861258337
H           -4.99845216072920        0.75509987563229        1.10342299455259
H           -4.96465538075958       -1.60626633228677        2.38262831467651
H           -1.07809951704914       -2.41207087920313        3.97780141308933
H           -2.94857680215975       -3.83708304453717        4.61078182051782
H           -4.12722929456566       -2.62512011564880        5.10344281195945
H           -4.49860630850662       -3.69650032135525        3.76488501440923
