21
 energy: -26.012100224481 gnorm: 0.000344376002 xtb: 6.7.1 (edcfbbe)
C            1.08023114267830       -0.39928216806506       -0.11489174013114
C            0.31703548308095        0.10925083158429       -1.33003413151975
C            0.62305568196512       -0.57215529908872       -2.66696231650129
C           -0.17367721221219       -1.85042120261351       -2.90955595900456
S            0.49871372802869       -1.99638113148604        0.58580165476836
C            1.54969192871576       -3.21813643289230       -0.03748244204387
N            2.43490562723116       -2.99647160751844       -0.99388563961776
N            1.42983785108010       -4.41828058693985        0.51141826484974
H            0.91291015850818        0.28178566534158        0.72130389238879
H            2.15404025416362       -0.46774085042374       -0.28282445300087
H           -0.75475690949702        0.05191860877895       -1.13450727602031
H            0.57303569504238        1.16797437881590       -1.41485590540867
H            0.36568261258065        0.12976080241314       -3.46117327176007
H            1.69905398610119       -0.75577326643385       -2.75925317843816
H           -1.23717029250044       -1.62680472260823       -2.91042867621176
H            0.07911855602530       -2.26656160243534       -3.88116434509553
H            0.00723899044307       -2.61271821864440       -2.15584008867906
H            3.03916594263511       -3.73329958543635       -1.32725506373621
H            2.44529182111583       -2.12208369792786       -1.50057001162087
H            0.77330982135401       -4.56982888741254        1.26151524504911
H            1.98064513346168       -5.20614102700603        0.20450544173545
