37
 energy: -54.612083438107 gnorm: 0.000369226191 xtb: 6.7.1 (edcfbbe)
C            0.57412144121818       -0.04565760173176       -0.28457651744756
C            0.19048598643027       -0.24125460034667        1.14332037431434
C           -0.02155765216693       -1.54727728948995        1.62382672289098
C           -0.37907514755479       -1.81350549623187        2.92580637083962
C           -0.52731320071749       -0.72023010481891        3.77248733982569
C           -0.31852342393403        0.59042196935639        3.30551767048588
C            0.03916739750962        0.84540758778763        1.98817843039290
N           -0.55140601387179        1.43031478160708        4.37922775618422
C           -0.44496831482518        2.86507185443491        4.34076562893260
C            1.01975060641625        3.29587088336138        4.03120096604877
O            1.31201332172380        3.52390907378383        2.88302481029546
C            1.96994524196742        3.38653764608887        5.14246052601206
C            1.66804745161955        3.05862062225450        6.46751333490904
C            2.63324061654926        3.17679889908236        7.44827379016383
C            3.90640458052400        3.62739272754493        7.13035989860552
C            4.21848902051556        3.95756002713831        5.82017858762883
C            3.26094664025808        3.83598249658401        4.83449409873082
C           -0.87640192467158        0.67148381460981        5.42339668734264
N           -0.87377997142669       -0.61847672814229        5.10319346368972
C           -1.18130941534356       -1.72373256988845        5.96906551154334
H            0.78030383032217        0.99873326719710       -0.49717996386955
H           -0.22898803834101       -0.38383824538448       -0.93787318018755
H            1.45759998304352       -0.63480484556199       -0.52284803800380
H            0.10307683725647       -2.36948734719202        0.93625171331373
H           -0.53740819162875       -2.82181915433599        3.27091398915331
H            0.21089316178185        1.84994500833318        1.63739353603953
H           -1.06028009426285        3.24091622596160        3.51711985621822
H           -0.79816137056532        3.29177496821610        5.27861130145163
H            0.68443857951147        2.71562381823569        6.74834613268036
H            2.39243004234223        2.92366930678865        8.46951648370482
H            4.65080676063397        3.72424816207192        7.90532903025240
H            5.20635680942380        4.31188626189049        5.57106437055295
H            3.48337800122819        4.08994490214476        3.80928646885193
H           -1.12951065232882        1.04758501976475        6.39682209424408
H           -1.41486318335073       -1.35947588104294        6.96660770051402
H           -2.03849949667546       -2.27468662472215        5.57946391008653
H           -0.32850021860532       -2.40128283535010        6.02476914361213
