39
 energy: -44.760607996326 gnorm: 0.000394240066 xtb: 6.7.1 (edcfbbe)
C            1.63556818072323       -0.06868889920460        1.12358501589187
C            0.72965830853114        1.10589515838516        1.02180346871884
C           -0.40272096771555        1.21239382551584        1.81299554428444
N           -1.23568294907787        2.25665893595148        1.73071391880873
C           -0.99519440791846        3.25065190389132        0.87298372993106
C            0.11505600095960        3.21902818398214        0.05013732407365
C            0.98477704075298        2.14525541847053        0.12097802129403
C           -2.35878539546024        2.33775627373146        2.64666837004700
C           -1.91535750145910        2.92532782336576        3.99480174400615
C           -1.50809150487062        4.39691186811849        3.92956408054005
C           -2.63948886730193        5.36507973621161        3.57274100083318
C           -3.84279119234078        5.32980979958360        4.51846408674275
C           -3.51944029325345        5.60442234302398        5.98872085755240
C           -2.85421539100567        6.95500531487735        6.26057347254077
C           -3.71653697725970        8.14374860213999        5.85333401442424
H            1.67774329154821       -0.59137501786835        0.16903167332870
H            1.30567601438561       -0.76480565846591        1.88855231748229
H            2.64851071528431        0.25654373783909        1.35565012028060
H           -0.65374254373946        0.44217675024437        2.52794452123229
H           -1.70009708363288        4.06717596651632        0.84155224959113
H            0.29002237981388        4.03066578312513       -0.63730267602148
H            1.85606207331838        2.10273422442931       -0.51434791876175
H           -3.13650506716388        2.96257113332207        2.20729318064071
H           -2.76032283713826        1.33433267403179        2.79979023130591
H           -2.74477123439918        2.81074663322890        4.69106094476413
H           -1.07823491136733        2.33822892356333        4.37927416571929
H           -1.11339199374661        4.67199163710924        4.90755587518636
H           -0.69018823523875        4.52493891762910        3.21296569757342
H           -2.22283663326888        6.37265699915657        3.56874243170335
H           -3.00096239024843        5.17216929339000        2.55841908233303
H           -4.56054796505567        6.07378281050001        4.17111612354036
H           -4.33957011459200        4.35872013199661        4.44906487622925
H           -4.45712988232096        5.56302747374810        6.54699463164528
H           -2.87801858182630        4.81141681043156        6.38049200117258
H           -2.65415867474440        7.01828758784653        7.33231045488292
H           -1.89068995334838        7.01074945658759        5.74960618113963
H           -4.69537707125729        8.08192735992742        6.32324708960729
H           -3.24612306240381        9.07184323904243        6.16813817035069
H           -3.85324032215118        8.18560684463227        4.77530392539198
