25
 energy: -30.265852414667 gnorm: 0.000762345108 xtb: 6.7.1 (edcfbbe)
C            0.64028131208059       -0.03504820565185        0.16107530686531
C            0.28999982718362        0.91347457960852       -0.97913558158608
C            1.01327737722516        0.55932934645794       -2.28418597889342
N            0.61615838944964       -0.77084158210159       -2.73034267309214
C            1.42146338185155       -1.86480977518276       -2.78923987630402
C            0.66764272053808       -2.90421603922933       -3.24422460225414
N           -0.59002237008074       -2.42719768945022       -3.45374978988042
C           -0.59694795375812       -1.13557982859806       -3.13652928177280
C           -1.69972761019995       -3.19130157105785       -3.95669827587799
C            0.74412318393432        1.57916569608779       -3.38690433649005
H            0.32507766528417       -1.05462157807144       -0.05280107044432
H            0.14255451719828        0.28477857101875        1.07148602000608
H            1.71135009191727       -0.03500316069780        0.34688864813465
H           -0.78864640512826        0.91469142045301       -1.14539354195561
H            0.58171989776107        1.92707391774942       -0.70515865096725
H            2.08927099368017        0.50679662886932       -2.09207527582036
H            2.45473855262755       -1.83727492291261       -2.50963329298326
H            0.93617764848942       -3.92452035784822       -3.42697124847667
H           -1.45239605154483       -0.49268979446292       -3.20080388719910
H           -2.62599966834659       -2.63986850127732       -3.81590093694547
H           -1.56664622682692       -3.39443891384032       -5.02008670009236
H           -1.76538242037809       -4.14199992797895       -3.42971444119248
H            1.19003472708862        2.53075644565998       -3.11398575168359
H            1.18455067430286        1.25764322721076       -4.32782957586452
H           -0.32161225434903        1.73597201524523       -3.53059520522986
