47
 energy: -60.529185336878 gnorm: 0.000199766569 xtb: 6.7.1 (edcfbbe)
C            1.20806867926346        0.46293707423810       -0.39413331789209
C            0.66992087557360       -0.34932621848636       -1.56506740093215
N            1.04457018787677       -1.79213441312272       -1.57893801843832
C            0.57777200416763       -2.47790688619648       -0.31572930044696
C           -0.91601694738989       -2.64260850150642       -0.18385256019184
C           -1.72600607379945       -1.60885153013343        0.27224053730238
C           -3.09648373728669       -1.79543343167717        0.37486862780566
C           -3.66732154493352       -3.00826523863240        0.05564978157303
C           -2.86071826738283       -4.07100226642799       -0.35789497787726
C           -1.48780745005297       -3.87328915075722       -0.48892300252701
O           -3.48089953628366       -5.22538295573809       -0.67838641200534
C           -2.81457295297189       -6.43546489352585       -0.60385002763238
C           -3.08702279833266       -7.37717380739779       -1.58764353674574
C           -2.50543951455701       -8.62999051764287       -1.51400425052170
C           -1.65293566032439       -8.94422820792656       -0.46847254122919
C           -1.39264923554881       -8.00490933706603        0.51511441949833
C           -1.97186729544622       -6.74977794044843        0.45548405963622
C            0.34729971219125       -2.47671179510053       -2.71450242773747
C            0.73977190574853       -2.08881869350112       -4.13034676927941
C            2.53093554498972       -1.98857653026179       -1.64571626250593
C            3.33881702510401       -1.02681384029305       -2.50846304640035
H            0.73000114074090        0.20735842607495        0.54694947179813
H            0.99145968830465        1.51043700085532       -0.58998674302257
H            2.28197578666116        0.36638691645779       -0.27076273377019
H           -0.42086824765846       -0.30049775409711       -1.56314200929649
H            1.02863008286271        0.08839101411086       -2.49562335694756
H            1.04128766957314       -3.46685291264013       -0.30248366326243
H            0.96416815768840       -1.90881056070063        0.52969691887880
H           -1.30329439638672       -0.66325854520006        0.57175798789338
H           -3.71921604768947       -0.98623352691783        0.72178343517918
H           -4.73006767493610       -3.16733916697915        0.13582120988460
H           -0.87093544099421       -4.69570947887640       -0.82278833474560
H           -3.76123632651070       -7.11873863760712       -2.38891421621113
H           -2.72163946294885       -9.36296986663016       -2.27567184691895
H           -1.20152744787569       -9.92237438987340       -0.41301923825813
H           -0.74439905398372       -8.25087099556198        1.34244328886452
H           -1.79209820423162       -6.02359922632181        1.23571726960537
H            0.51685230701523       -3.54839664616066       -2.59157708120064
H           -0.72040519556415       -2.29106977084263       -2.58085726544557
H            1.73779246165562       -2.42794172614354       -4.38944547872113
H            0.04676249541658       -2.58877096210714       -4.80341087209139
H            0.65359507046068       -1.02247672621852       -4.31553627246440
H            2.91387776655572       -1.92170571726180       -0.62528995240446
H            2.69734081707347       -3.00920997834393       -1.99625335299233
H            3.33710596031368       -0.01411062431457       -2.11866570388144
H            4.36908950394438       -1.37613945716438       -2.49387984844248
H            3.01841366991273       -1.00094760591989       -3.54276518549623
