42
 energy: -76.052876955401 gnorm: 0.000728411863 xtb: 6.7.1 (edcfbbe)
Cl          -1.90176934911175        0.33842024224906        0.86937083383223
C           -0.20866142092736        0.26468277571006        0.61381752840270
C            0.41829391793325       -0.96649309531675        0.44562364021200
C            1.77978087724004       -1.01121948941248        0.24535961252238
C            2.54371690585204        0.16271139417421        0.20098943137662
C            1.89802648179760        1.39074808070013        0.37730087286547
C            0.53603928398775        1.44152711016970        0.58279605322347
C            3.98749166534062        0.01421576783643       -0.01180934155578
O            4.55920260605587       -1.04630426034981       -0.01904184963792
C            4.80651827392928        1.30731632761743       -0.26293294662922
N            4.35534367407478        1.98628766298456       -1.45253050406262
C            3.93452973471965        1.35892378009272       -2.58727569845876
C            3.59637589459181        2.31834516191253       -3.49001894085816
N            3.83112439852925        3.51434459539815       -2.88279309321595
C            4.29911905587012        3.31120944285188       -1.64655956180430
C            4.66839472241027        4.37517094089308       -0.69591066852155
O            3.62184958600880        4.76572662415421       -3.36514458514145
C            3.74890205562134        4.92510673158072       -4.78196629657739
C            4.95199680055446        4.25819145572433       -5.39464806910186
C            4.80492957733230        3.47917874319318       -6.53891901349069
C            5.88753325408997        2.87450772341792       -7.14631273490115
C            7.15533724504662        3.03554157740923       -6.60092449867096
C            7.33102015200429        3.80646226660094       -5.45985048934858
C            6.23519694626428        4.41488219235103       -4.87125042888431
Cl           6.50015682982482        5.39168779236744       -3.46950613995757
Cl           8.51371397119146        2.28663047392237       -7.33565783370355
H           -0.16170249654753       -1.87456538604554        0.47843866456390
H            2.28668571253608       -1.95596019227188        0.11916304748711
H            2.45097538394745        2.31718649478349        0.38219124499937
H            0.03996346482941        2.38762734391462        0.72981788287126
H            4.73109933310457        1.97056588165549        0.60004413042651
H            5.85186085713780        1.00270530770805       -0.38390826873082
H            3.90562492889831        0.29231800207614       -2.67655748932822
H            3.22511723985012        2.22296828960958       -4.48792936846701
H            3.98814143102230        4.40332561561174        0.15605374619842
H            5.67869794005187        4.22098971631640       -0.31944409871206
H            4.62254720620771        5.33587805893944       -1.20260611356031
H            2.83338453690483        4.58328367758274       -5.27793626945269
H            3.81418686876965        6.01288575768332       -4.88102318773450
H            3.82369567967563        3.35990033049897       -6.97381311080342
H            5.75521249124190        2.28452464653508       -8.03809123342915
H            8.31601628212743        3.94214443715296       -5.04268485422865
