119
 energy: -124.375268685129 gnorm: 0.000225558858 xtb: 6.7.1 (edcfbbe)
C            0.98502180945438        0.49068274815093        0.44588746662738
C            0.76076578713038        0.67402172263001       -1.05036996757579
C            0.74209746455831       -0.64513126295775       -1.82395184339164
C           -0.37483048387006       -1.61066881910573       -1.42273875277613
C           -1.79455632402542       -1.07379365586665       -1.61627196679594
C           -2.14659616284424       -0.67440173468572       -3.05105805671172
C           -1.95116202957881       -1.77675777914921       -4.09355492493687
C           -2.75099358566246       -3.05335040076257       -3.83044726214840
C           -4.26997150562038       -2.89006761722064       -3.90246845765627
C           -4.81621766857674       -2.43124727014822       -5.25886235544924
C           -4.29472323249979       -3.21384291064752       -6.46725649928865
C           -4.61755126291656       -4.71420061681024       -6.41694405396149
C           -5.77975118313535       -5.12148995151918       -7.32134298093566
C           -5.44558324030755       -5.09787579522322       -8.81973609922930
P           -4.71317792124187       -6.64287911402927       -9.48137810554880
C           -5.79988024839831       -8.04173185284538       -9.00667441189991
C           -7.31144194708654       -7.80670579714555       -9.07047383036436
C           -7.87802500164898       -7.59625629330563      -10.47402799286614
C           -7.76857942746674       -8.80727037140106      -11.40380382799056
C           -8.46292466007107      -10.07322544868449      -10.89420559207921
C           -9.95080188387521       -9.91440542161052      -10.57383415404424
C          -10.81610572544881       -9.44724042223825      -11.74540263618491
C          -10.82067055339414      -10.42356790587024      -12.91545104914901
C           -4.57704281112612       -6.60918111034191      -11.31737326538689
C           -4.78242261281246       -5.25407357785109      -11.99735967209546
C           -3.58105196562209       -4.31781716690308      -11.86697895865187
C           -2.39647161453004       -4.68450700856220      -12.76532832004888
C           -2.66608901329195       -4.58272636521817      -14.26881301248771
C           -3.12141749304000       -3.20683037657582      -14.75912965400494
C           -2.15233062113802       -2.06216453117415      -14.45872842303174
C           -0.78957847128787       -2.24068744862141      -15.11727908281429
C           -3.09149817497786       -7.17169871431385       -8.79538553835145
C           -1.83550975014268       -6.43459334461951       -9.26601701562706
C           -1.58828114607726       -5.09943045317503       -8.56132115359736
C           -0.98709958693079       -5.26003459689498       -7.16129363583025
C            0.52542553442036       -5.49295712884236       -7.16659954550399
C            1.35759147469541       -4.25629553392863       -7.51456278493086
C            1.23124939429566       -3.08884045097751       -6.53301751649742
C            1.66017595034794       -3.44032575765791       -5.11320829798725
H            0.14419464753022       -0.01809676123789        0.91032051398390
H            1.10191403567311        1.45752452586140        0.92974749698352
H            1.88489636974899       -0.09337598208537        0.62729404171287
H           -0.17288432241043        1.21458039494920       -1.21502350688150
H            1.56764506406829        1.29072612723343       -1.45407284031907
H            0.66328905401356       -0.42230333291648       -2.89056721361090
H            1.69834058627815       -1.15207519806187       -1.66790518497383
H           -0.25394731271389       -2.53143717463449       -1.99822932206343
H           -0.25284844949665       -1.87719133488917       -0.37142585030797
H           -2.49778944752252       -1.83468658900653       -1.26962591315188
H           -1.93753119184105       -0.20031672611874       -0.97789806786422
H           -3.18627591441706       -0.33962949824682       -3.06738403522386
H           -1.53344749239867        0.17977718491539       -3.34476500975564
H           -2.21867027411385       -1.37179431199577       -5.07265572180255
H           -0.89312797093929       -2.04065567440112       -4.13386042736668
H           -2.43769585474242       -3.81915369580380       -4.54445935258583
H           -2.49907974602309       -3.43052693828097       -2.83847572692025
H           -4.72502785334851       -3.84506339715361       -3.62685293634791
H           -4.58984921364317       -2.16672800399962       -3.15171218447168
H           -5.90650378116892       -2.49981242837407       -5.22878085842571
H           -4.56341440838629       -1.38027609021048       -5.40716632517268
H           -4.72921973519853       -2.76871128617635       -7.36600696367783
H           -3.21649092372922       -3.07081617184340       -6.53292516048763
H           -3.73513209397681       -5.29387509361305       -6.68247957923714
H           -4.88002321993319       -4.98568058970887       -5.39533711487028
H           -6.12137254454238       -6.11604269719159       -7.02864947864087
H           -6.60773518639899       -4.43081140755372       -7.14975411921700
H           -6.36432716972595       -4.96460345957971       -9.40035073714471
H           -4.78644705861367       -4.26030586975898       -9.05336783784166
H           -5.52072016288437       -8.88438420266379       -9.64573272470390
H           -5.52066459970677       -8.30863942746485       -7.98178599050925
H           -7.79622713998936       -8.67505535592937       -8.62219782359328
H           -7.57822709751973       -6.94425884912711       -8.45793785249972
H           -8.93221875339153       -7.33780400415753      -10.36981497050539
H           -7.38543490134301       -6.73782640403544      -10.94123075591455
H           -8.20036552705046       -8.52962880884602      -12.36626248673647
H           -6.71790852076264       -9.05199887271285      -11.58739810988706
H           -8.34571710212988      -10.84656631324489      -11.65438944947980
H           -7.95427155043173      -10.43518945837148       -9.99718382838888
H          -10.32249592529495      -10.88409814216117      -10.23567022524142
H          -10.07609074182961       -9.21626963561536       -9.74290548270883
H          -11.83904804268560       -9.33240340143557      -11.38067760433607
H          -10.48495268603668       -8.46564197202246      -12.09055237093006
H          -11.10610450735525      -11.41754224562177      -12.57927811055227
H          -11.53429553346340      -10.10114413188728      -13.66939561174128
H           -9.84173539563728      -10.48589017062909      -13.38433373207739
H           -3.59182050392196       -7.00811159305799      -11.57119645194517
H           -5.31766279791344       -7.32096934906243      -11.68790581346546
H           -4.97595309148022       -5.43536555332016      -13.05507329163829
H           -5.67176416295492       -4.76611636622311      -11.59366959025340
H           -3.89992367425187       -3.30468422617689      -12.11100748063284
H           -3.24239060109734       -4.31294670091788      -10.82676196465342
H           -1.56567062086111       -4.02549422387878      -12.51049757216493
H           -2.06756047333163       -5.70608991995790      -12.55467191050613
H           -1.74782670344312       -4.85720168497615      -14.78947377645677
H           -3.42143917199754       -5.31731616666556      -14.55851852983228
H           -3.25715313669398       -3.26911277392380      -15.84094742953008
H           -4.09644213310427       -2.96733997470473      -14.32827567572230
H           -2.60156620280222       -1.13771843549990      -14.82779909155752
H           -2.02468704072455       -1.95032999835496      -13.38002253511611
H           -0.90310630205538       -2.40554928216591      -16.18614383272726
H           -0.18388051090078       -1.34956203893673      -14.97264522902472
H           -0.25158867912608       -3.08514767590420      -14.69339082976156
H           -3.16659692588683       -7.15039335570316       -7.70580288697908
H           -3.02389971455038       -8.22485552570642       -9.09539243839487
H           -0.98014531660164       -7.08708684314916       -9.08112301281120
H           -1.88444164078079       -6.27322937528192      -10.34347094720167
H           -0.90346627795419       -4.50689922763759       -9.16826204931545
H           -2.52677290900128       -4.54497971346295       -8.49933578040010
H           -1.19738467486141       -4.36491325559472       -6.57630513623683
H           -1.46392848931598       -6.10008813501834       -6.64933147797212
H            0.82390577979532       -5.84933055797378       -6.18042865699346
H            0.76936107201549       -6.28337716796906       -7.88062218041157
H            2.40543793002268       -4.56117025224729       -7.55267111947427
H            1.09041477157918       -3.90103665466274       -8.51276759618261
H            1.86385903135178       -2.27780463265776       -6.89988153108332
H            0.20578909057522       -2.71320936293827       -6.52201192624420
H            2.65231039815948       -3.88553144150055       -5.11532515014982
H            1.69276947080964       -2.54420199042227       -4.49799917589266
H            0.96807370015514       -4.14080413235642       -4.65157815191377
