24
 energy: -31.313821523971 gnorm: 0.000871741780 xtb: 6.7.1 (edcfbbe)
C           -2.53830023113572       -0.18800806262839       -0.03157581189248
C           -1.11378287146444        0.10053644093213       -0.00016172589737
C            0.05974159368101        0.34880512488678        0.02781594070224
C            1.47997619091252        0.60614216434892        0.06958848259030
C            2.28657922926952       -0.69247545991312        0.02145877552387
N           -3.11269523269162        0.20415939840754       -1.30941752249955
C           -3.16171570737202        1.44628168127852       -1.78154816870573
N           -3.71502333386001        1.43662203692615       -2.99238762228167
C           -4.02549536883458        0.14873793982103       -3.30083845783509
C           -3.64450365345975       -0.62516014427388       -2.24472929709777
C           -3.94338725922714        2.58767293237739       -3.82523623278057
H           -2.70838647393792       -1.25874320263341        0.10849308201397
H           -3.04483682568682        0.35907122341030        0.77145240722387
H            1.70581074412177        1.15189630855477        0.98923719512576
H            1.74491774851905        1.24372177152782       -0.77830509493572
H            3.34835770892923       -0.46543234104665        0.05685943989982
H            2.03920466962158       -1.32677072635561        0.86887096752953
H            2.07916342098629       -1.24105739916456       -0.89426491618331
H           -2.80280631066082        2.31618400234798       -1.26570028240498
H           -4.48534880107903       -0.13205112032472       -4.22622815402063
H           -3.71850511950094       -1.68480911554457       -2.10808794498640
H           -4.59292617610618        3.30147320228464       -3.31762288758019
H           -2.99925220382309        3.08103739495936       -4.05824622444383
H           -4.41772573720089        2.27602594982157       -4.75292594706406
