14
 energy: -14.005075803224 gnorm: 0.000455708484 xtb: 6.7.1 (edcfbbe)
C            1.06394431396114        0.03328017436038        0.08643774183734
C            0.54246929860514        1.46031297342962       -0.05145167155575
C            1.04854637391300        2.14690113364109       -1.31267756916019
N            0.57468339301762        1.40296692996455       -2.52127772656922
H            0.63041290711004       -0.64508613048311       -0.64735231660966
H            0.80088570883445       -0.35559628588466        1.06512279174806
H            2.14756504279001        0.00558202683075        0.00383308356131
H           -0.54870255425531        1.46566305986926       -0.03374162527619
H            0.88119706934266        2.04729632499568        0.80157504844380
H            0.68716196014122        3.17397671824177       -1.36909711704531
H            2.13947724330047        2.15591949057026       -1.32558413514716
H           -0.45254401048033        1.41839466038838       -2.56363584399595
H            0.95100672476478        1.80075457900427       -3.38937798528381
H            0.87952652895512        0.42277434507175       -2.43150267494728
