24
 energy: -34.587615711837 gnorm: 0.000454750077 xtb: 6.7.1 (edcfbbe)
C           -2.35485919591758       -0.02251622593525       -0.09690779523075
N           -0.91313103872580        0.00412899706765       -0.00016470386480
C           -0.21503423159229       -1.12660117238942       -0.18370617514246
C            1.15339505791587       -1.15020406612213       -0.08085471509388
C            1.85743683011710        0.02207243096388        0.23235698432813
C            1.09558623234518        1.18296781751886        0.42554683165604
C           -0.27168091267607        1.14149876191857        0.30013573999876
C            3.31168424463916        0.03206021208002        0.35059694848166
C            3.95202906539029        0.83838574621817        1.29592471437323
C            5.33686210790972        0.79992537437307        1.36676475672168
N            6.08061281714149        0.05004499696472        0.57622170168035
C            5.48441904606618       -0.70840172511110       -0.32366803044822
C            4.10700577523778       -0.76473816618941       -0.47792275138693
H           -2.66773663265484       -0.67046285316968       -0.91443775639661
H           -2.78556953210388       -0.40571819645927        0.83067168728117
H           -2.74296218396878        0.97872631832772       -0.27112767827289
H           -0.77776885523209       -2.01930299313841       -0.41339800965521
H            1.67867874789339       -2.08079670564142       -0.22401238361865
H            1.57689997612979        2.12073366938023        0.65207827813392
H           -0.87370453768480        2.02747772363884        0.43701926601119
H            3.38707710277854        1.44679244793788        1.98398663208152
H            5.87326171390366        1.39924141634897        2.08880308769589
H            6.13829546970398       -1.30000790278342       -0.94871927867966
H            3.66880293338422       -1.37943590579909       -1.24792735065336
