51
 energy: -54.155727772355 gnorm: 0.000296477228 xtb: 6.7.1 (edcfbbe)
C           -0.99678788264605        0.28936140316815       -0.23901313903126
C            0.03995007663469        1.24721428732130        0.36729934711558
C            1.49542564337812        0.80434004584951        0.24129920215956
C            1.67454159760605       -0.56882791608118        0.87721079033079
C            0.75976753170100       -1.58912498461950        0.20969038218986
C           -0.70480971606213       -1.14109188092323        0.24561930759948
N           -1.23705980852804        0.41312952522338       -1.74201832126338
C           -2.60344370613665       -0.11997703416014       -2.06935236525193
C           -3.82038180325106        0.70486219515603       -1.63156265381476
C           -4.37464100104314        1.70596570197508       -2.65554438882220
C           -4.70323661429883        1.12463499036533       -4.03285095827249
C           -5.68315398032347       -0.05022880017545       -4.02458464063752
C           -7.05180697222194        0.25927887442209       -3.41363573249696
C           -7.81760266755320        1.39654610939570       -4.09219080277881
C           -8.12691763458997        1.12355374557557       -5.55925173828534
C           -1.14622419957534        1.81605391860715       -2.18552796303494
C           -0.27280011235052       -0.36107016760541       -2.54613529334028
H           -1.96180072676136        0.57937015264470        0.18773723736885
H           -0.08198219042818        2.26493915169239        0.00264920824675
H           -0.19117512105871        1.27767232157938        1.43522016793642
H            2.12092260022429        1.53161851738218        0.75981474006439
H            1.82652468658931        0.78666610889403       -0.79868594451255
H            1.43672750946545       -0.50362375069284        1.94015268383838
H            2.71120775579690       -0.89203368703211        0.78841166799741
H            0.82812541195249       -2.53830159208511        0.74267433652536
H            1.10536270459322       -1.77384174429446       -0.80642704067932
H           -1.02068444176928       -1.16334933695517        1.29116294885031
H           -1.32309722575436       -1.87299325851733       -0.27569696358166
H           -2.64825404617114       -0.24739015759975       -3.15143499225198
H           -2.66925369645178       -1.11110809185634       -1.61980778897940
H           -4.61469368284417       -0.01009826133256       -1.41340988460387
H           -3.62522243210062        1.23766463157537       -0.69950785054805
H           -5.29062777720798        2.11482405588294       -2.22821005929411
H           -3.69364349427980        2.54720517931262       -2.79135080578362
H           -5.12392987966655        1.92980686052175       -4.63530781832600
H           -3.78737696899817        0.80885192023302       -4.54210281960046
H           -5.82487288811041       -0.37473771971622       -5.05602642994682
H           -5.24581109657833       -0.89421443111723       -3.48462759425809
H           -7.65567260923860       -0.64853968417875       -3.47606845143635
H           -6.93801965488033        0.49676812994914       -2.35324632535654
H           -8.75838117374272        1.53190592995888       -3.55471650766047
H           -7.26024065360813        2.33127206010883       -4.00433985956830
H           -8.63857415312548        0.17024182630358       -5.66896219475750
H           -8.77142153691914        1.90340774105965       -5.95654022229106
H           -7.22051523710797        1.10015881079810       -6.15928614320289
H           -0.11295219901042        2.15484008083656       -2.16345989826303
H           -1.50755369095434        1.88964559190267       -3.20961297835236
H           -1.75043447943493        2.45960670853428       -1.55166420858008
H            0.74300446895370       -0.07801633481193       -2.28613915564998
H           -0.40539561807234       -1.42712547788940       -2.38374482985234
H           -0.42828721404445       -0.15350226463157       -3.60424725590426
