19
 energy: -25.399714912473 gnorm: 0.000853642685 xtb: 6.7.1 (edcfbbe)
C            1.10464799959459        0.31460627204995        0.49492747876688
N           -0.11421722327037        1.10782468737444        0.60854569311224
N           -0.68887518133795        0.97910265693790        1.91375501658863
C           -0.43076007478222        2.05840118047834        2.64531027506992
N            0.13166574679670        2.96922157516203        1.87462174754121
N            0.17475240700046        2.49706065951640        0.53088917234237
C            0.67372173752492        4.25739106679446        2.18833290497500
C           -0.72347475222281        2.21178962061671        4.07796892058961
H            1.51737540348494        0.51273084908801       -0.49002823873042
H            0.83566389330184       -0.73644336584700        0.55887217649450
H            1.84775625608480        0.55852484946552        1.25882089680698
H           -1.16430654318818        0.13212219956917        2.17798862086354
H           -0.54463749572697        2.97129508543055       -0.02659903855003
H           -0.07012234365873        5.04041604343730        2.02488192510644
H            1.00341584817301        4.28443603737371        3.22443327938551
H            1.52397197871134        4.44003348755818        1.53266317112869
H           -1.27961371693084        1.35670699190892        4.45095369262570
H            0.20587106802017        2.29271723760417        4.64262870844242
H           -1.29761500757472        3.11997286548124        4.25668359744103
