25
 energy: -41.211288223956 gnorm: 0.000566932595 xtb: 6.7.1 (edcfbbe)
O            0.86499796766555        1.30049148842574        0.09120642455501
S            0.46972206436005        1.13858275639574       -1.49006226266557
O            0.82095706889511        2.35041102640358       -2.13660605873729
O            1.00112536299808       -0.10535956549969       -1.93729960661900
C           -1.33154210954900        0.98619361848669       -1.29459819151782
C           -1.72123467229056       -0.47522802631067       -1.36869549782882
C           -1.09522763467317       -1.32272767776150       -0.25295164958144
N           -1.71035759319370       -1.06639197209838        1.03898030421958
C           -2.86883892398335       -1.66644805068774        1.34064191266808
C           -3.50332383568344       -1.43383129293544        2.54242713800235
C           -2.92642819830334       -0.55795176341306        3.45497406989988
C           -1.72705002900118        0.05660349807450        3.12082218280052
C           -1.13961888719705       -0.21852303974597        1.90078841086643
H            1.59567807445418        1.91755279613461        0.18018909994950
H           -1.58203541249629        1.46596388347918       -0.35375993220924
H           -1.76026630414574        1.55523691794343       -2.11362738763996
H           -2.80950691761929       -0.57700134129406       -1.35946159899096
H           -1.34705514703058       -0.87452453054562       -2.31203745278105
H           -1.22497384407762       -2.37940662063015       -0.49581688000743
H           -0.02746877838788       -1.10341646985529       -0.21275449741543
H           -3.27986434699977       -2.34559831235760        0.60778852075660
H           -4.43266350211434       -1.93461312952631        2.76246253622387
H           -3.39985260986735       -0.36374613353720        4.40463788623968
H           -1.24456294634891        0.74057555667006        3.80063182081758
H           -0.20781884541034        0.24093638418553        1.59828070899393
