20
 energy: -32.374188044346 gnorm: 0.000583082460 xtb: 6.7.1 (edcfbbe)
N            0.99790951096704        0.62676121621746        0.58024082767305
N            2.10683498174261        0.59763983485946        0.40345934021083
N            3.26473456398787        0.39368211008089        0.23928509046535
C            4.23053792272999        1.32225865261861       -0.24479873894695
C            3.97020798855682        1.70943093208367       -1.72050980112877
N            2.60486143735242        2.13292962138705       -1.90456761916333
C            1.96983975617242        3.19387913202227       -1.41839945309498
N            0.68000025769010        3.07376351865998       -1.74222161869637
C            0.58500928917372        1.90662815466778       -2.43617941225585
N            1.74572038817085        1.33942090493981       -2.53447507597361
C           -0.39602719001363        3.97109023732645       -1.42373430668685
H            4.25212439978860        2.22265173792018        0.38377984608936
H            5.20274148209854        0.83131283915349       -0.18118185719668
H            4.65911600419234        2.50169668750041       -2.01826413033157
H            4.10387334407544        0.83818296536766       -2.36524425813917
H            2.41128290417123        4.00342656575701       -0.86981784966387
H           -0.32122486441964        1.50430462643128       -2.84253102308052
H           -0.05377135914687        4.73005537682511       -0.72356636015029
H           -0.76025076629060        4.45763904909975       -2.33035719384982
H           -1.21715005099715        3.41111583708181       -0.97504640607964
