69
 energy: -76.401717434164 gnorm: 0.000196449612 xtb: 6.7.1 (edcfbbe)
C            0.94579639775752       -0.11174624413129       -0.29386892324655
C            0.46324577139969       -1.55723490128346       -0.30748447896628
C            1.02064584449352       -2.39083870616892        0.84745742367272
C            0.61858127272508       -1.91049635034910        2.24355262135509
C           -0.88849542617131       -1.85925957047454        2.50057325117648
C           -1.61638924164282       -3.19540719613101        2.34201812984933
C           -1.12921061436500       -4.31086576988399        3.26939407069767
C           -1.19950697644175       -3.98662276715599        4.76340918086173
C           -2.58467364267712       -3.58183340817878        5.27113766368358
C           -3.67405338356142       -4.63788778505879        5.07737878462704
C           -3.44065735592089       -5.95204779492561        5.82681812986925
C           -3.28478068653954       -5.81357781121939        7.34469903935203
C           -4.41400068285567       -5.05633779120044        8.04290278166035
C           -5.78842559515824       -5.73105362682093        7.92843474160261
N           -5.83380123819429       -6.94737613899305        8.71945008311425
C           -6.11938376690156       -6.86754287665172       10.02376750419455
C           -6.12338077099811       -7.99665695794770       10.81538437668517
C           -5.82102735869023       -9.22620035221910       10.25050855219975
C           -5.50962679736009       -9.30348426213787        8.89159567740326
C           -5.52800179140000       -8.12226651632467        8.16286444539795
C           -5.10705320737018      -10.58348616999449        8.24314817297195
C           -3.57591887740786      -10.75980622222394        8.29546522979230
C           -3.01063694118177      -10.90817201721275        9.70746988264288
C           -3.44480851909779      -12.17631112236316       10.44655899063482
C           -2.94742095531825      -13.45651897981324        9.78606451374534
H            0.57350749688289        0.41909513448568        0.57866549171083
H            0.59487266791877        0.41045351542140       -1.18100540333446
H            2.03293111863200       -0.07393033720691       -0.28256383577019
H           -0.62791919193023       -1.57705905287714       -0.28846357764554
H            0.77861062237372       -2.02411633108800       -1.24378956256760
H            0.70311283176848       -3.42753430617235        0.71555264903849
H            2.11196721402590       -2.37828721377146        0.78899131322665
H            1.08932869362178       -2.56679287669385        2.97905737663374
H            1.02416090705765       -0.91023639219550        2.40617710779532
H           -1.05000775233375       -1.47531491210789        3.51052984563951
H           -1.34342063984741       -1.14294919950835        1.81405061055572
H           -2.68334540408888       -3.02629640457850        2.50670202485323
H           -1.50704018631302       -3.54089847076712        1.31256834764766
H           -1.71632815196790       -5.20929354641690        3.06272749405663
H           -0.09243100983380       -4.54925404453079        3.02626713198978
H           -0.84390373886304       -4.85633164341917        5.32161187777526
H           -0.51127864141647       -3.16850578312207        4.98114045600665
H           -2.50196386515761       -3.32582707542970        6.33013812339693
H           -2.90061931199235       -2.67675609322214        4.75098673481945
H           -4.63315094953473       -4.20782280271021        5.37779239297990
H           -3.75452058498701       -4.87035469004138        4.01495432120898
H           -4.26768216095491       -6.62807231653406        5.58944337760970
H           -2.53499926501085       -6.42250312928564        5.44271234300313
H           -3.17785229791179       -6.81020039549932        7.78501772983154
H           -2.35715134590132       -5.27946433115574        7.55067994001954
H           -4.16472892393279       -4.93425083430660        9.09951875549779
H           -4.50082346478732       -4.06110547218660        7.60966460208020
H           -6.55987579035050       -5.05032157824803        8.29300337341583
H           -5.99816199169423       -5.97143988131505        6.88611160853414
H           -6.35364633205520       -5.89201472844309       10.42176759598483
H           -6.36568368359252       -7.91214840802697       11.86234019765060
H           -5.83486772262248      -10.12026848408133       10.85379489126085
H           -5.30689426953596       -8.12468679243923        7.10554322949282
H           -5.58223603492915      -11.42366712226583        8.74672607154109
H           -5.41857555558845      -10.58515317259975        7.19808701945933
H           -3.32007766684977      -11.64178466016801        7.71053344920517
H           -3.10571526862692       -9.89879347007358        7.81431061315284
H           -1.92181183298689      -10.91672842914747        9.62963517196513
H           -3.28356905764169      -10.03279715211019       10.30518612841984
H           -3.04182711623598      -12.12579113659014       11.45996776946676
H           -4.53271646767421      -12.21725212600652       10.53406508220075
H           -1.86933657394626      -13.42126136394850        9.65089954905948
H           -3.18344977727203      -14.31331785227520       10.41144614553857
H           -3.41333498101892      -13.61275329858350        8.81647459037956
