42
 energy: -53.127948239189 gnorm: 0.000318651748 xtb: 6.7.1 (edcfbbe)
C           -0.21825481426103       -1.05878553051647       -0.26931316021354
C           -1.28477843226150       -0.52541192661806       -0.35850963935142
C           -2.57130625141008        0.14801893528631       -0.43090147163079
N           -2.62635730651731        1.23928845377185        0.52152807372777
C           -2.61394344732335        2.53948063256361        0.24402148065542
N           -2.64084179056075        3.26961703078363        1.35155294958066
C           -2.64996507509918        2.40399175903541        2.42614339808732
C           -2.64055238868739        1.10044976083415        1.89380843182812
C           -2.64642662812251       -0.02069525405146        2.71442298594502
C           -2.66831479574346        0.20626532965702        4.07464307161231
C           -2.68271935648357        1.49997086752448        4.60595184150332
C           -2.67235841304054        2.61870874678272        3.79944145523095
C           -2.53601751470695        4.70681304467001        1.42521706336218
C           -1.07491169878129        5.13104811399885        1.60534737930374
C           -0.21231631752003        4.83993268947926        0.38109063159011
Si          -0.56555115326417        5.91209051670421       -1.19153842996809
C           -1.13110093989710        7.64635304828114       -0.65081651391392
C            1.04621358175994        5.97358995414579       -2.19351377603478
C           -1.92504732436709        5.10465738375926       -2.27531786686787
H            0.71049087029915       -1.54572062530291       -0.21650216385341
H           -2.72643942772494        0.54643597762324       -1.43742116659750
H           -3.37102024888143       -0.56559371346975       -0.20303189488433
H           -2.59693927219452        2.95444831442460       -0.74701996708640
H           -2.62558891725762       -1.01843699630631        2.30819805248904
H           -2.67331559204345       -0.63455682884988        4.74951127963758
H           -2.70018013764838        1.62330921727315        5.67697046673915
H           -2.67950124792536        3.61153051079296        4.21807219880098
H           -2.93457882009557        5.13354549948048        0.50492362328164
H           -3.13847181343636        5.04750520613781        2.26953576146040
H           -1.06164553434777        6.20007929888484        1.81138270367421
H           -0.66825927430850        4.61860230846682        2.48162109888760
H            0.82243858619087        5.02890654593610        0.66556136046312
H           -0.25690469464823        3.77382909603368        0.14569393858854
H           -0.41107500565500        8.10472904550141        0.02038474067774
H           -1.22388204258148        8.29903658583810       -1.51303863359105
H           -2.09426688310021        7.64103997058093       -0.14835025299160
H            1.38900090205244        4.98033854679355       -2.46848404123407
H            0.91335046135996        6.53686819055639       -3.11165154864959
H            1.84456431344817        6.45053082083898       -1.63343394715858
H           -1.67161782643214        4.08412990952790       -2.55158114577580
H           -2.91240199728578        5.10750043606279       -1.82028438034041
H           -2.01341633149734        5.66196912707584       -3.20252398700214
