32
 energy: -53.077461410290 gnorm: 0.000496989911 xtb: 6.7.1 (edcfbbe)
C            2.29984736033933        0.84820857283698       -0.46744908909108
C            0.91977126586997        0.54734422496141       -1.06837188128983
C            0.98165179236337       -0.65132449141140       -1.93336506289809
N            1.01605410992020       -1.90182021347540       -1.46066421163938
O            0.96249697558652       -2.18662668591624       -0.13485449758282
C            1.17557346425927       -2.78699811937055       -2.48314448860305
C            1.23680024310035       -2.04375200088110       -3.61817697549021
N            1.14512603042536       -0.72885478442978       -3.26204188591358
C            0.94464657633103        0.36170337376600       -4.17421665667735
C           -0.55678204517541        0.77082321243758       -4.10480401908886
O           -1.24320368014269        0.26461926265259       -3.24547549003666
C           -1.02803668583929        1.74720141440386       -5.07656947422479
C           -0.20165924961837        2.37486105839299       -6.01762006773927
C           -0.72638924085129        3.29125554914918       -6.90185430330710
C           -2.08602090402516        3.59863600093581       -6.86640344395187
C           -2.92031415352472        2.98542027867585       -5.93474935693950
C           -2.39268153334792        2.07220164691928       -5.05113880815605
Cl          -2.72768593740315        4.73531685416238       -7.97224309840454
H            2.64423795947736        0.01283761589298        0.13549881780347
H            2.22913698811232        1.72331427102324        0.17030975888569
H            3.03235658508078        1.04697381450528       -1.24572902252134
H            0.21612652156451        0.34680881406450       -0.25818152684976
H            0.55506705286556        1.40387930017729       -1.63240742789008
H            0.49113188342320       -3.02351933019039        0.01361170936402
H            1.22493156502137       -3.84695467755428       -2.33838449591680
H            1.34361171123939       -2.35796082840701       -4.63620063145520
H            1.56472054512477        1.21696396612553       -3.89591145289264
H            1.20326977833069        0.03504159195381       -5.18129825560283
H            0.85424171395600        2.16008785395810       -6.06304881513020
H           -0.09103824663413        3.77624996179973       -7.62563056859031
H           -3.97039305796407        3.22840662532332       -5.91102709686358
H           -3.02231538785909        1.58580586754899       -4.32158818132465
