58
 energy: -68.342325596568 gnorm: 0.000212077717 xtb: 6.7.1 (edcfbbe)
C            1.30490312430676       -0.71622007940670       -0.27714792816026
C            1.10219109645062       -1.21643179298521        1.14827348615166
C            1.47355113348047       -0.18024440434033        2.21026868173660
C            0.65760160825727        1.11302479042655        2.16225309390090
C           -0.85022954159514        0.93190872724059        2.34622569828458
C           -1.26692581080623        0.30322275434217        3.67762121554635
C           -0.80862948931217        1.06217517442436        4.92562918989883
C           -1.22735484917507        2.53283320558165        4.98092020307644
C           -2.74006523702951        2.76710012568576        4.98892095561955
C           -3.41707678393698        2.40173196185070        6.31311014854138
C           -3.17912835546085        3.42473611900170        7.42540639457266
C           -3.92693143226559        4.74945103932279        7.22606252846303
N           -5.35044845154201        4.60833040967592        7.43804050416585
C           -5.96220225463874        4.69517149830788        8.61405318168526
N           -7.27151104679575        4.50204791989612        8.50011588675645
C           -7.54243264939187        4.25791296363836        7.17021683281986
C           -6.31138992979618        4.32918246806608        6.48776433173291
C           -6.24306886019608        4.14263839777804        5.11089190488089
C           -7.42626442805237        3.87611488602483        4.45547428621127
C           -8.64667922592576        3.80203915446135        5.13477403602657
C           -8.73017539675900        3.99288980633811        6.49749976399515
C           -8.23630424689319        4.49419148194322        9.57774642357522
C           -8.54195694941558        3.06974822140970       10.02971800712810
H            0.61151808175741        0.08637946121938       -0.51573930596548
H            1.14094248957352       -1.52419060896723       -0.98624486955376
H            2.31929867500961       -0.34642495461916       -0.40938937603021
H            0.06523859452781       -1.53103678959066        1.28014631925833
H            1.72918873496844       -2.09748070509954        1.30416082792875
H            1.37157515536164       -0.63789677575009        3.19662085248721
H            2.52682985357088        0.08253034000581        2.08403928856281
H            1.03920468499486        1.78637606402703        2.93299242809570
H            0.82578191177311        1.60315534219412        1.20162453695295
H           -1.32935061444154        1.90839234619106        2.23970508199651
H           -1.23476450780831        0.30332852627438        1.54121802175033
H           -2.35591443611419        0.20800536623637        3.68684193364562
H           -0.86406590896053       -0.70908188352936        3.73520286946557
H           -1.19131190719247        0.53718575309171        5.80436958869178
H            0.27998889678399        1.02325983008798        4.98352467330731
H           -0.78287479054633        2.98383094900335        5.87126449690897
H           -0.80499235772095        3.05018903292154        4.11911604921992
H           -2.92267809234544        3.81911292813491        4.75487728244059
H           -3.19181739796090        2.17747307907088        4.19129053150230
H           -4.49132699009223        2.27519361047943        6.15644379832782
H           -3.02936938133008        1.43948321004946        6.64721424106988
H           -3.47449448220968        2.99696361318746        8.38613358611154
H           -2.11509165072145        3.65332766963676        7.48103185481117
H           -3.55301780052758        5.49071746115903        7.93573004355546
H           -3.76962483947048        5.12682958862705        6.21533844604662
H           -5.46199277501478        4.91218341006534        9.53965346094148
H           -5.31010814263122        4.19636355444467        4.57566635348300
H           -7.41325550165536        3.72092880913318        3.38859152579148
H           -9.54388990448805        3.59149855501894        4.57519718604664
H           -9.67412858704415        3.93909117148101        7.01419438153314
H           -7.82900426942723        5.07591430061759       10.40691517716312
H           -9.14585461330443        4.98273634945426        9.22140600233026
H           -7.64694339369854        2.58563949744573       10.41251583891721
H           -9.28390733193876        3.09449780159701       10.82181316996190
H           -8.93472942516931        2.47713926799433        9.20758487664096
