35
 energy: -46.554139792899 gnorm: 0.000288598011 xtb: 6.7.1 (edcfbbe)
C            1.12540490605110        0.23473018209413        0.11757469742737
O            0.28567366706729        0.16133264317464       -1.01579725749833
C            0.82885866301099        0.21449055796179       -2.24733661190369
C           -0.08282024649672        0.15214953069750       -3.30470015136212
C            0.36593198947613        0.18314962231589       -4.61600883198257
C            1.72271991712397        0.28982233675814       -4.87965843791560
C            2.64115178517538        0.36436938851587       -3.82931769969500
C            2.19173300019568        0.31611770167888       -2.51247813982224
O            3.93156871346736        0.47267954889639       -4.19946325363691
C            4.92942700520942        0.60840180466680       -3.20894364985270
C           -0.61733140084135        0.12364943028690       -5.75574557636616
N           -0.94880202404355       -1.27355159675288       -6.20212077669963
C           -1.59380974042507       -2.01723039407737       -5.10695039657256
C           -1.87243067313721       -1.19814259143326       -7.34734552377187
C            0.27629974486715       -1.98034950976428       -6.61219439180834
H            0.45960000642806        0.18382483462581        0.97661286009358
H            1.67845996809612        1.17718119961414        0.14508711538856
H            1.82366459085978       -0.60638740577394        0.15162563327079
H           -1.13161537278288        0.11239868776197       -3.05986028273635
H            2.10508117722865        0.35078976526105       -5.88540293753124
H            2.89574212893406        0.37344149348047       -1.70061944883932
H            4.76459713819707        1.49864421337598       -2.59614970621274
H            4.98155654371454       -0.27762566234885       -2.56986427006781
H            5.86606969341064        0.71471466568607       -3.75236866227242
H           -1.55226963067465        0.60363583349957       -5.46080527529021
H           -0.20748335600836        0.65378689146178       -6.61734505647345
H           -2.51663006057035       -1.52228594771385       -4.81037586774091
H           -1.82790044654428       -3.03001171828480       -5.42951144152478
H           -0.92776974460284       -2.06131462045838       -4.24723694843884
H           -1.40611668664109       -0.66790382474120       -8.17579611104217
H           -2.13800049777282       -2.19995548325740       -7.68104843938481
H           -2.78287187706241       -0.67210908739166       -7.06571063008146
H            0.75709544173137       -1.45252019991986       -7.43348206014088
H            0.97170552889816       -2.03178058618483       -5.77639080175323
H            0.03356014846103       -2.99004170371150       -6.93806166776103
