59
 energy: -74.514487023014 gnorm: 0.000694527117 xtb: 6.7.1 (edcfbbe)
C           -0.35576800583220        0.52861989931179       -0.05390130026057
C            0.31131672605614        0.88135820669568        1.27613894279046
C            0.58753856858421        2.35604466591957        1.41538729481207
C            0.33845549801714        3.01265608759490        2.61523252777614
C            0.68316000622644        4.33871075547162        2.77098051933920
C            1.23470912147302        5.08701465318481        1.73398980349576
C            1.41171097790700        4.45985240569492        0.49609688636424
C            1.13643529127552        3.09631166375596        0.38209660333869
C            1.95587772258372        5.15390227641866       -0.73076010528430
N            0.92083128438803        5.59057139998530       -1.73533210564471
C            0.14242189758771        6.77596165202150       -1.22119669744916
C            0.70100259975378        8.12859504393653       -1.58739696490205
C            1.75598749887150        8.71446185284774       -0.89605233975384
C            2.22920325275410        9.96345417207107       -1.25981638099059
C            1.65275826127200       10.64772103799982       -2.31585013775086
C            0.59349776636003       10.08011647208909       -3.00374250115210
C            0.12325516957886        8.83082793601929       -2.64223574394130
C            1.60960084691116        5.95599338140573       -3.02027871613515
C            2.34335445990220        4.82228552408820       -3.68737729218706
C            1.69475620190829        3.98882845590297       -4.59386337214369
C            2.37861693095021        2.95753155610202       -5.21340910975620
C            3.72013865413049        2.75027192714634       -4.94115825682654
C            4.38169170743399        3.59095077810423       -4.06166678587887
C            3.69912945451759        4.62329020384882       -3.44186778565787
C           -0.03753952019622        4.50403038552218       -1.99632562709029
C            1.66066497451827        6.49455847005277        2.03826291224583
C            1.61926917806194        0.10316808715376        1.44770580861313
H           -1.23079722747248        1.15257902396068       -0.22430167730914
H           -0.67555446419511       -0.50959617557455       -0.03770953219728
H            0.33146988857242        0.64994255804095       -0.88793445151412
H           -0.36735568494391        0.59067513299608        2.08408171221409
H           -0.09541675699999        2.47252636340668        3.44272036279396
H            0.53047536076473        4.81373959918365        3.72826957187585
H            1.37733520397240        2.59413101700781       -0.54263878119268
H            2.53068774176410        6.04092416763336       -0.46709175921653
H            2.61362808134864        4.45500189703126       -1.25215664645616
H            0.06682127886409        6.65790393870079       -0.14034014980600
H           -0.86464519355455        6.71193944847277       -1.63739274991744
H            2.20826523608694        8.21248056370922       -0.05611709477468
H            3.04593558108205       10.40419665457720       -0.70969882292537
H            2.02028174947906       11.62242790628414       -2.59457005216638
H            0.12905727837075       10.61143711096218       -3.81937786556276
H           -0.71399256838117        8.40582254765262       -3.17783094426705
H            2.31190430459375        6.76177186848757       -2.79781990436132
H            0.84338495445355        6.34511842453756       -3.69416482086594
H            0.65527402093617        4.15469901300398       -4.83569358788657
H            1.86353854014646        2.32088880539922       -5.91555950934045
H            4.25252896544732        1.94723714409399       -5.42566351337563
H            5.43267662618681        3.45039004174523       -3.86302503271272
H            4.23266136179972        5.29114285408303       -2.78015702259551
H            0.48923842539471        3.61687806690159       -2.34017381975996
H           -0.58515735874211        4.26414908891622       -1.08683680203147
H           -0.74097411460279        4.81108626568664       -2.76840493490469
H            0.92591986900934        7.23284234658699        1.71593862954766
H            1.77463474290347        6.60987599700503        3.11306295037988
H            2.62170041039908        6.72565059680945        1.58279975220565
H            2.06750936988160        0.31985967486479        2.41416518738541
H            1.42936729270795       -0.96497913200894        1.38645057414683
H            2.33102055973385        0.37333823946869        0.67054065860617
