72
 energy: -87.961222404505 gnorm: 0.000804432198 xtb: 6.7.1 (edcfbbe)
C            1.83571614834426       -0.14663909311221       -0.00942560826763
C            1.44281164121785       -1.49844639770970       -0.59310430031629
C            1.64342178891170       -2.65923282370580        0.38271319536609
C            0.80744169219022       -2.58001455790673        1.66187771296301
C           -0.70569411412131       -2.51931165788884        1.44385933772846
C           -1.29409411045812       -3.69992834049541        0.66894547748264
C           -1.07943278291682       -5.06921832289020        1.31710636063883
C           -1.65706572954808       -5.21786730224572        2.72687299865917
C           -3.15168432840578       -4.91290247697574        2.85202704378678
C           -4.06170927178926       -5.79880321025587        1.99704385396292
C           -4.14071997805403       -7.25299787846417        2.47830537068132
C           -4.94074980145208       -7.44470512378084        3.77271174638306
N           -6.35681346422311       -7.90125191168331        3.61946925254665
C           -6.42714273092761       -9.31133615991139        3.10346536778706
C           -5.80986972666648      -10.34794393241907        4.00611318501658
C           -6.59403417868140      -11.00860044100503        4.94920397854183
C           -6.05082468806204      -12.00508415609847        5.73455777943145
C           -4.70956352014198      -12.35551860378007        5.60499746074468
C           -3.92576133168147      -11.70620813956712        4.65744321211829
C           -4.47483895345371      -10.71488230415189        3.86262797569933
C           -4.20390452409841      -13.51251985824200        6.41371478064986
O           -4.93485395011126      -14.45563342105901        6.62466511260289
C           -2.81614350062011      -13.44872907271157        6.91339741014218
C           -2.16135449838459      -14.65020832403568        7.18864651187088
C           -0.86941699435710      -14.64449179958852        7.67642684718391
C           -0.22598535366767      -13.44000523824804        7.91499712687363
C           -0.87880701123681      -12.24154025593976        7.66939458573383
C           -2.16645671662543      -12.24060351366442        7.16705217124704
C           -7.00177864863004       -7.83293154128700        4.94425649217959
C           -7.10152542588957       -7.02670520139852        2.69758307046583
H            1.17735380634775        0.13645763309257        0.80800289124660
H            1.77435471838302        0.62480540974867       -0.77358239547278
H            2.85681429582402       -0.17623628069732        0.36443460992675
H            0.40305570431725       -1.46411100561438       -0.92369693905143
H            2.05647793509833       -1.69141816553959       -1.47623315230540
H            1.42502268745743       -3.59479269980396       -0.13707972942324
H            2.69684388982798       -2.69045208427440        0.67185226969821
H            1.05056744938320       -3.44504293055110        2.28333569418361
H            1.10308479696036       -1.69299241996112        2.22481687704837
H           -1.18949622438213       -2.44650494980327        2.42089795037197
H           -0.95036684423400       -1.60475644425846        0.90102363164898
H           -2.36405107464967       -3.52368764641301        0.53268493865583
H           -0.85015004593240       -3.72700890747753       -0.32729427533762
H           -1.50807710969633       -5.83174951522862        0.66157274833260
H           -0.00905693442153       -5.27140856953271        1.37337029466573
H           -1.45568424782234       -6.23431350961259        3.07541082477076
H           -1.12457605865399       -4.54420529434726        3.39914658843795
H           -3.43048998459462       -4.99773978920553        3.90611291177356
H           -3.32110060127778       -3.87616758395999        2.56167285049153
H           -5.05606031552090       -5.35096497144449        1.96862234320603
H           -3.68368662779162       -5.79882459423569        0.97534173833516
H           -4.53785156640350       -7.87653792995966        1.67702350319167
H           -3.12271613359775       -7.59811471793511        2.66019269303357
H           -4.45062867878306       -8.18236624674864        4.41075315839111
H           -4.96273890589633       -6.49544411067041        4.31151820557659
H           -7.48353245757086       -9.54717855496560        2.95806404280031
H           -5.93495200199688       -9.33669780327244        2.13035856304462
H           -7.64268418413763      -10.76944952513771        5.04838521979989
H           -6.66084785112573      -12.54059588308974        6.44547777609702
H           -2.89643755032024      -11.99795143814619        4.51581449444278
H           -3.86300466322995      -10.24631706394517        3.10539503272174
H           -2.68408167700226      -15.57651154776215        7.00426944355818
H           -0.36513387834118      -15.57692455517863        7.87795027005986
H            0.78161407158704      -13.43348686922907        8.30181592835406
H           -0.38176925321747      -11.30545096581399        7.87586888217533
H           -2.68055810479314      -11.30394464011870        7.00251088066057
H           -7.00878863358657       -6.80590933866229        5.30497425782246
H           -8.02998046816939       -8.18373407139701        4.87743023594786
H           -6.46471028754461       -8.45505133698132        5.65765988790707
H           -7.05733225964062       -5.99712171386494        3.04800003467994
H           -6.68373221400735       -7.07885064272744        1.69534586003835
H           -8.14545845234625       -7.33317566506993        2.65386344855646
