32
 energy: -40.267774637453 gnorm: 0.000574651982 xtb: 6.7.1 (edcfbbe)
C            0.61030108822156       -2.02587051343033        0.15004697835235
N            0.67989741030796       -1.92233784573394        1.58237793764126
C            1.63334875702587       -2.49609074704257        2.37013151881234
C            1.35251523173594       -2.15540358395161        3.65788231098656
N            0.22599013426945       -1.39110405546448        3.63642714134094
C           -0.15804011637376       -1.25533045428053        2.36985948413437
C           -0.34939499052446       -0.66475239561951        4.73746194864257
C            0.17462612358437        0.78523445736799        4.67987964873809
O           -0.07604212066913        1.28351907602768        3.40790726224542
Si           0.83651160890240        2.35270072791457        2.51337596659919
C            2.60905854472571        1.65544775429796        2.36599013638008
C           -0.08443399285235        2.26426064313215        0.85628793013654
C            0.85630472285030        4.07482901912907        3.30773463367958
H           -0.25484608254893       -1.47888114039240       -0.21725649361395
H            0.52482928557272       -3.07140163134326       -0.14823571541701
H            1.51278242438443       -1.61048289786788       -0.30016255744391
H            2.42672147869491       -3.09421637021160        1.97016504378284
H            1.86227820328158       -2.40711792705804        4.56540491739861
H           -1.00228036375790       -0.67994598113738        2.04452225617899
H           -1.43517411414438       -0.65793876611366        4.62730029309219
H           -0.07457715814784       -1.13779756621166        5.67962901764758
H           -0.34783960964532        1.38237655264776        5.43368246517583
H            1.24714384098505        0.79842396789146        4.90216385504737
H            2.62515784515905        0.61696215017081        2.04119675544949
H            3.18872698785915        2.22489623598298        1.64812436169397
H            3.14125061500274        1.70979110960396        3.31168573315773
H           -1.15884491158229        2.32466252036474        0.99297092629857
H            0.20885812932301        3.09987497287143        0.23230008000130
H            0.13424758276439        1.35848876465502        0.29835925869668
H           -0.15178324996286        4.45650153476182        3.44660817583774
H            1.33824413255316        4.06522722122402        4.28262962214852
H            1.39094256300283        4.79018516781738        2.69130910717294
