12
 energy: -17.734694602011 gnorm: 0.000496577976 xtb: 6.7.1 (edcfbbe)
C            1.07539395659151        0.17464653947062       -0.10961678263980
N            0.08174987235751        0.80326962744980       -1.01223009270772
C           -0.14102996558364        0.08741338181050       -2.31614367302702
N            0.11174546386504        0.85709033367517       -3.26965523194653
C            0.49200069262203        2.08073761447508       -2.70497063455135
N            0.48341081677296        2.09063982608898       -1.43294297076114
H            0.70764294083281       -0.78935710599297        0.23629972701850
H            1.24819230083527        0.83304190374898        0.74099038212618
H            2.01323895799000        0.04086204876174       -0.64808995939205
H           -0.80349453997450        0.89817677481174       -0.48873356066811
H           -0.45367747073733       -0.93839102964513       -2.35331231541093
H            0.76519697442835        2.92574008534550       -3.31131488804003
