20
 energy: -26.816364352411 gnorm: 0.000320801615 xtb: 6.7.1 (edcfbbe)
C            0.89926760561034        0.01526008676224        0.04512953673447
C           -0.29490291909811       -0.01830637247364       -0.01003590168330
C           -1.74802003465159       -0.04987364111747       -0.04888643643275
N           -2.29621382190539        0.40233149648396        1.22748278731027
C           -2.74315785568834       -0.48169764582748        2.12752923399253
C           -3.22373647302754       -0.07320566080901        3.34850054169569
C           -3.25074668391674        1.28656457093025        3.67918554301291
C           -2.76314639474861        2.17835057846686        2.71722928915821
C           -2.29465416879391        1.71110407581007        1.51314010343538
C           -3.78613476237899        1.75233970576899        4.97624420860693
H            1.94935696689459        0.03130478569043        0.06208720550254
H           -2.10534232258809        0.60603970121364       -0.84932125736428
H           -2.08685263961823       -1.06930854145166       -0.25183719285288
H           -2.71026391088772       -1.52699520455528        1.85716733646509
H           -3.58035369463580       -0.81081956140962        4.05019817823601
H           -2.75179972684416        3.23895479448153        2.91309930941049
H           -1.90584188058668        2.37919148574936        0.75838791808589
H           -4.87721590171237        1.74503724196490        4.94023109741450
H           -3.49126429457418        1.08469674540552        5.78297766506775
H           -3.46484708684852        2.76492135891651        5.20234083420465
