27
 energy: -50.569244332376 gnorm: 0.000201980075 xtb: 6.7.1 (edcfbbe)
F            1.19082110191443        0.66971989198592       -0.09901836501967
C            2.42721261868697        0.08712076925043        0.08395850068829
C            2.84746754515015       -0.65298444836522       -1.18594632830392
C            2.40472767980348        0.08499449137296       -2.45550729523819
N            2.83923407725600        1.46179677063631       -2.44082054778203
N            4.13454808959318        1.74823942320282       -2.38370737934248
C            4.21764024583114        3.04192944458851       -2.35728007698992
N            2.97370871934280        3.60822609949387       -2.39495098989186
C            2.10626597336663        2.57561406211059       -2.44725086880282
C            0.64258039784614        2.66562078640495       -2.49475369754130
C            2.63973364913669        5.01107847150353       -2.38292543097874
C            5.51302966967515        3.80972895689399       -2.28516494563182
F            5.62765424665603        4.63263427108665       -3.33247069318626
F            5.53850110449511        4.57054652387280       -1.18430028524592
F            6.55301533390550        3.00147655778209       -2.26359956203455
H            3.11431974592728        0.90285099082129        0.33110632565849
H            2.34285839933554       -0.58969287071976        0.93595598127350
H            3.92995829679465       -0.77211369458889       -1.17441364238238
H            2.38896526120138       -1.64110463519198       -1.21433658570496
H            2.84793997060895       -0.40341995916827       -3.32613324209175
H            1.31780468204732        0.07223400047822       -2.53862518289453
H            0.25541710035677        2.17206677496214       -3.38628927421918
H            0.20908890765284        2.16396168827418       -1.62722473876882
H            0.31325236192548        3.70000369148816       -2.49853478434281
H            2.10423790648413        5.27429999778785       -3.29600464011063
H            2.01491465702136        5.23726478355889       -1.51804637380053
H            3.54412225798570        5.61158716047824       -2.32552587731519
