45
 energy: -62.753952326871 gnorm: 0.000397265909 xtb: 6.7.1 (edcfbbe)
C           -0.49905801846219        1.29701342092819       -1.70017313490045
N            0.47929968767022        0.22739101594204       -1.98199394059978
C            1.84942210405675        0.80657781049619       -1.91025754318947
C            2.18454737908080        1.81731117460355       -2.80561845912037
C            3.44557948266173        2.38528557733562       -2.78178654851798
C            4.38804938661650        1.95654564152715       -1.86312234817756
C            4.05423225472390        0.95754914840384       -0.96855479968683
C            2.79207023888360        0.38114266764131       -0.98674500215674
C            0.28258520799742       -0.88246694501034       -0.98636840061237
C           -1.07242343636711       -1.54110478862880       -1.04711006338157
C           -2.12688973743019       -1.07922794289646       -0.26494723531247
C           -3.35648793667666       -1.71495682849834       -0.32221025643235
C           -3.55240887392469       -2.81293805972948       -1.13655963883210
C           -2.49355770362394       -3.30567447129425       -1.89960505419993
C           -1.25825448337649       -2.65782554121112       -1.84900982824354
O           -2.57930244698699       -4.34659641425986       -2.75169286170477
C           -3.57315379491901       -5.30457073083022       -2.60830045169742
C           -4.19737003534097       -5.75496466247891       -3.76313791977876
C           -5.13706094018901       -6.76650532568405       -3.67967101156961
C           -5.45454058551464       -7.32440431211156       -2.45249733877323
C           -4.82172578819306       -6.87611113337737       -1.30537589195263
C           -3.87660126211084       -5.86803967435277       -1.37605514349451
C            0.25868991610229       -0.31013434724929       -3.33998833413430
H           -0.30455937364821        1.71775136119763       -0.71479653255532
H           -1.50701837266176        0.88629196288076       -1.72572594336326
H           -0.42264046503703        2.09221396716377       -2.43686094796965
H            1.47888780484503        2.18212314204694       -3.53493939079316
H            3.68634571672121        3.16521040076321       -3.48625475736944
H            5.37099412691164        2.39839723139051       -1.84500695060105
H            4.77453396762902        0.61344268303030       -0.24374571547561
H            2.58753179783608       -0.39180953930335       -0.26648124570225
H            1.04861836527760       -1.63496158825954       -1.18190560624091
H            0.42787659367309       -0.45895770455451        0.00910203565522
H           -1.99004044124037       -0.24196701247689        0.40247132867805
H           -4.17381397132878       -1.34837399338965        0.27849933799855
H           -4.51751461921887       -3.29283262943610       -1.18207184681573
H           -0.45278431444118       -3.06961680882615       -2.43778203637811
H           -3.93400126804060       -5.31244776517447       -4.71105023060344
H           -5.62223897454935       -7.11800143311038       -4.57697600735696
H           -6.18867637150554       -8.11228014284252       -2.39034946499760
H           -5.05655088619600       -7.31631658561790       -0.34852224497856
H           -3.36688799190272       -5.52891260161878       -0.48556609715676
H           -0.72865632034834       -0.76511789157148       -3.39701348861936
H            0.32498645623251        0.47858145254832       -4.08395247801659
H            1.01484792615951       -1.06170178403712       -3.56100051087830
