40
 energy: -50.122580900013 gnorm: 0.000265649718 xtb: 6.7.1 (edcfbbe)
C            1.03446761342947       -0.06505891042026       -0.06856442210613
C            0.50868241163376        1.30623746163127       -0.47593304918079
N            0.89221313496325        1.67948741610455       -1.91320810001002
C            0.39752156050213        0.74533517590628       -2.98332912512203
C           -1.08711998835391        0.51757462746200       -3.12523886555865
C           -1.95105559251893        1.49779688480715       -3.60280151866763
C           -3.29802349217004        1.22689035601395       -3.76775380238525
C           -3.79671779806218       -0.03487371376139       -3.49555206186099
C           -2.93502165055136       -1.03494791706049       -3.08087338770387
C           -1.59209047460886       -0.75933460689701       -2.89869127533430
C            0.43168673598869        3.05195933955058       -2.18897680834598
C            2.36764499535066        1.68837515275052       -2.01959684683214
C           -0.96956119277761        1.46799657278732       -0.17462398186307
C           -1.45050464919310        2.71835712931822        0.21212760540042
C           -2.78571296127184        2.90240383822414        0.52174507555619
C           -3.66443857754472        1.83429964353363        0.46779493431431
C           -3.18813296147416        0.57858925038077        0.13652154857898
C           -1.85189664383541        0.39427865333029       -0.17095924228795
H            0.68921233551750       -0.85833076155244       -0.72324888598046
H            0.66589432435484       -0.27832798032601        0.93202928751589
H            2.11949638936483       -0.08888258428310       -0.02271370298977
H            1.03272595886674        2.05513039739679        0.13017348456032
H            0.77865520301734        1.14567151095149       -3.92782768873971
H            0.87805983528766       -0.21987736927382       -2.81687906632058
H           -1.58413403881439        2.47248356387167       -3.88410162614081
H           -3.95464989083023        2.00204153144556       -4.13052961563286
H           -4.84577619077047       -0.24384874715567       -3.63214495703342
H           -3.30512619976150       -2.03264273501525       -2.90409631514419
H           -0.92747203580688       -1.55684599974507       -2.59673839359816
H            0.92185398421441        3.74976121950329       -1.51190401736641
H            0.68466359142609        3.32851827601392       -3.21112809486067
H           -0.64409212738330        3.12160526943557       -2.05073819160257
H            2.80017360573237        2.29730615016814       -1.22764859624900
H            2.77069388986519        0.68147248731824       -1.95020040084469
H            2.66588871169956        2.10891499670652       -2.97868970607383
H           -0.77613779278935        3.55801886089312        0.30268865020054
H           -3.13445849964756        3.87933194519366        0.81773855091888
H           -4.70616194595938        1.97571326127707        0.70772045634675
H           -3.85483405628576       -0.26917812351987        0.12735987961672
H           -1.50829552080516       -0.60145152296510       -0.39097772717358
