94
 energy: -105.750536006619 gnorm: 0.000239966184 xtb: 6.7.1 (edcfbbe)
C            0.45989600360413        0.40052884362202        1.47105615290802
C           -0.12190714513833        1.80554437804225        1.37810627811875
C            0.51107193752450        2.64597387011026        0.26763837202556
C            0.30818704990093        2.10376196924541       -1.14909809211248
C           -1.15039439095906        1.93494080621276       -1.57945212350835
C           -1.99798730042672        3.20601246948706       -1.50238340810936
C           -1.47186385167097        4.37650253465380       -2.33563864159424
C           -1.36807016322616        4.11080202600959       -3.83866375534914
C           -2.68219409065242        3.72480681949106       -4.52293420997312
C           -3.84274811027679        4.69601221679047       -4.29557714463992
C           -3.56712822376884        6.09828525677829       -4.83641985779980
C           -4.70704039475686        7.08624123978749       -4.58194641609777
O           -4.83020725227705        7.41005100855316       -3.19702004043606
C           -5.52341974819365        6.64106297238053       -2.32612521504988
C           -6.57348429223578        5.80840637180858       -2.73080813192215
C           -7.32993161682288        5.08833101274858       -1.83554066830640
C           -7.06536132862622        5.19052747340647       -0.48131205717893
C           -6.03703075153522        6.00514926688911       -0.05753114591715
C           -5.23723124827369        6.71871868974228       -0.94932930679057
N           -4.15884086616033        7.56344162391432       -0.34728088691012
C           -4.86567907787161        8.71096193327951        0.31796284826028
C           -4.02848137768467        9.85380806657185        0.89678807272572
C           -3.30277974098563        9.56498522033902        2.22334841229857
C           -1.77554453947591        9.61320493685546        2.11872530283254
C           -1.21168705205832       11.02265252247660        1.92347041576608
C           -1.37448695073219       11.95341165172683        3.12672805015659
C           -0.74240213934124       11.45122803791520        4.42672692860536
C            0.74706883597207       11.11353308486173        4.33340420267423
C            1.64283650630364       12.26847430861532        3.88177731274243
C            1.59472107634917       13.50985253059154        4.77448132583151
C            1.99924351746562       13.27234494912932        6.23016303801539
C            3.43224061092248       12.77619439069687        6.38287699762193
C           -3.38806626363153        6.72852732411469        0.60231724592034
C           -3.18023479793622        8.08413862797008       -1.32048772100214
H            0.22714636344639       -0.18079771162983        0.58295398348121
H            0.04876740433038       -0.12049613177495        2.33241449115774
H            1.54090610970087        0.44373375425119        1.58168694618857
H           -1.20190565703801        1.74232289486846        1.22959534769546
H            0.04576784078601        2.31905170037404        2.32853928703528
H            0.11607044434170        3.66371758522321        0.32880683512338
H            1.58613991551022        2.70848640557500        0.45201733889417
H            0.81764995944622        2.77185001084257       -1.84699463677539
H            0.79690989781941        1.13203174540382       -1.22954219171898
H           -1.16347874739128        1.55502330644397       -2.60249945730195
H           -1.62390359720646        1.17660676379745       -0.95344083469826
H           -3.01418854242021        2.96104766018695       -1.82120369420671
H           -2.05796817707063        3.52506080973051       -0.45771275925820
H           -2.12961712406283        5.23678475315538       -2.17288615363830
H           -0.48285829770359        4.65975821203524       -1.97090236595404
H           -0.95848514299457        5.00395619358023       -4.31618500910489
H           -0.65118804009808        3.30744627827476       -4.00919735952018
H           -2.49516755108513        3.64327341477340       -5.59535266312864
H           -2.99308842279266        2.73953153307139       -4.17223332010786
H           -4.72778512793080        4.29229076192354       -4.79289812261782
H           -4.06456662469406        4.74226580492045       -3.22726346002560
H           -2.65788491955354        6.50168245058027       -4.38794928408221
H           -3.40909033665749        6.04498981078814       -5.91421153602375
H           -4.47280154139786        8.04581870298816       -5.05000027414527
H           -5.64466542979993        6.72152501971404       -5.00428364696739
H           -6.80640127917949        5.73534862647509       -3.77939400384009
H           -8.13044327548783        4.46149091094909       -2.19314302730043
H           -7.65360686644949        4.64919752225026        0.24054134248723
H           -5.87089720890719        6.07494510453916        1.00447989635425
H           -5.52479687316254        9.12628316736593       -0.44933802103389
H           -5.49430293984684        8.29850627352627        1.10856311358228
H           -3.32137761254056       10.22902932419810        0.15887771960777
H           -4.74635367370916       10.65959472547294        1.06005428634380
H           -3.60535929811742       10.30553001101879        2.96219084539703
H           -3.61154496008401        8.59702070110255        2.62008928447664
H           -1.35116834082398        9.18652811376153        3.02734753142848
H           -1.42819456849820        8.99501872946450        1.28420611761244
H           -0.14998561174718       10.93273217296556        1.68984414634693
H           -1.69139749108635       11.49378441435985        1.06156281595076
H           -0.93020378085180       12.91422112541306        2.86368209459162
H           -2.43607209297802       12.13679201615126        3.30898760923665
H           -0.88620622880488       12.21997012640137        5.18718191109980
H           -1.27643756626589       10.56294941400993        4.77388682025258
H            1.07691732140826       10.76944386238078        5.31504669997343
H            0.88961555368946       10.27878338602025        3.64238429958415
H            2.67021723472347       11.90275035982857        3.83699181480661
H            1.36790788472760       12.56678666677312        2.86746876941988
H            2.26632953602959       14.25775601013626        4.34561628772110
H            0.58789310357297       13.93251141099188        4.75541454653411
H            1.89560940459147       14.21848655544393        6.76653353759721
H            1.31549034169363       12.56048652345568        6.69635957132046
H            4.12235322641253       13.44512284203721        5.87331999422613
H            3.70700065119307       12.73847042611200        7.43429275065454
H            3.55019332765897       11.77803000210677        5.96849004237191
H           -3.06544493832927        5.81932605218462        0.09570978857568
H           -2.51225365565176        7.26976487534524        0.94901983757427
H           -3.97878955527502        6.45111552003114        1.46921902850734
H           -2.78012955994881        7.26630641417009       -1.91552040466228
H           -3.64312748282331        8.81109377600155       -1.98124244352079
H           -2.35755020606160        8.55559267352373       -0.78769419682422
