43
 energy: -68.800466653714 gnorm: 0.000796915070 xtb: 6.7.1 (edcfbbe)
O            1.85508222138930        1.18226993598076       -0.62728092239721
C            2.88274485960348        0.61236684464896       -0.91632000491013
C            3.19325266646326       -0.76895790205926       -0.56904031007113
C            2.18741102442640       -1.51707811671012        0.06017090571410
C            2.40067805211297       -2.82784209258058        0.42155339179639
C            3.63536692177934       -3.41771062103367        0.16346623814489
C            4.64816254681913       -2.68681749325733       -0.45580373903404
C            4.42991106006992       -1.37655432024166       -0.82036390164777
Cl           3.91625001665227       -5.04627032712096        0.60923753871187
C            3.96629335463032        1.40267798612904       -1.70301994365899
N            3.40953914928377        2.65603227071321       -2.13180848590481
C            2.94616568868355        2.92027425690681       -3.39056014434093
C            2.37828628862288        4.15079726706389       -3.37391225447482
N            2.48080313985037        4.59563364562677       -2.08833053484543
C            3.10625336527804        3.68318902498144       -1.33213437498138
C            3.41165438315908        3.83055753558278        0.10135527420548
O            2.10453480486088        5.83473887324990       -1.67342249817287
C            3.17655726747183        6.70326914091221       -1.39723214486270
O            4.29213677634777        6.29267782567962       -1.46236990823795
C            2.67813148257442        8.08410869274625       -1.08395263289098
C            1.47516824709357        8.02716996163927       -0.13856297213194
C            3.82356390888488        8.88459042753724       -0.46295621914795
C            2.26581034586992        8.70066344389357       -2.43205107098978
H            1.23719431245899       -1.04193914762701        0.25148758435166
H            1.62208099481860       -3.39834307263182        0.90177148570244
H            5.60088067188769       -3.15441941114528       -0.64616044063645
H            5.23326189706065       -0.83243520760277       -1.29124923643451
H            4.82588385582320        1.57640618771091       -1.05099058991951
H            4.28052074014541        0.83835953083707       -2.58091763870813
H            3.05733531774112        2.22870319837863       -4.20057938778188
H            1.91010441525849        4.72890777312006       -4.14347558201735
H            3.21670227341144        2.90268089542944        0.63374064839869
H            4.45823094279088        4.10831369790408        0.24094442782478
H            2.79145267980490        4.61296770705464        0.53307335444841
H            1.75013200079169        7.57332059794384        0.81075915752954
H            1.12978801159481        9.03811817390655        0.05785627140332
H            0.65675585677072        7.46255844615727       -0.57607898125297
H            4.68754537343928        8.89339427442616       -1.12190617753535
H            3.50436542855399        9.90824330238785       -0.29250885930817
H            4.12405963687677        8.45292516715974        0.48843600553010
H            3.10228345322029        8.70637173775114       -3.12741829190858
H            1.43738635037235        8.15176825963283       -2.87293154029204
H            1.95099821523828        9.72743162891608       -2.26873349524731
