38
 energy: -56.735065597161 gnorm: 0.000280187129 xtb: 6.7.1 (edcfbbe)
C           -1.28325752455997        0.71086657100917        2.98246186369446
N           -0.44205927538027        1.18427340073857        1.91727405698355
C            0.74044177777201        0.62165581935499        1.53811785983126
C            1.22204034320468        1.35190924279232        0.49700504446606
N            0.33469421514894        2.36143544994442        0.26524218749479
C           -0.67408703880740        2.22843708876397        1.12708852380132
C            0.30765308394733        3.23459752228251       -0.86814397234628
C           -0.96104227584307        2.88014265008709       -1.70888475366460
O           -1.80230193195992        2.17952780188924       -1.18723931361727
C           -1.03842497089606        3.42291795053399       -3.05004933685643
C           -2.12370287437580        3.02751883858000       -3.84884910417028
C           -2.25580073633273        3.48809389468266       -5.13669814366181
C           -1.31087490771688        4.36296124480726       -5.68322255087474
C           -0.23903905761829        4.77012780668876       -4.87933258627507
C           -0.09988847269324        4.31424392712257       -3.58930846442510
C           -1.43424233299938        4.83813599924575       -7.06119552247130
C           -2.68520684729982        5.14148497927105       -7.60106894480470
C           -2.79623218856259        5.58928297986347       -8.90336802261285
C           -1.66521987881423        5.72741966664907       -9.69211580442505
C           -0.41876688574753        5.42298314512424       -9.16868402437328
C           -0.30105199029657        4.98904941031619       -7.86243545277229
H           -2.19359392929349        1.30406938036935        3.02484966865416
H           -0.76067538234799        0.78570399177511        3.93710661325137
H           -1.54766025767970       -0.33315739385587        2.81195549554526
H            1.14811352583820       -0.24263009836937        2.02114157620081
H            2.11705923439131        1.22681386844276       -0.07717717079137
H           -1.52653037515074        2.87530744150407        1.19081408183583
H            0.22241734159008        4.27848541658935       -0.55377543063831
H            1.21708215184435        3.09814390667387       -1.45160568151423
H           -2.84583780732214        2.34362030319901       -3.42929175880546
H           -3.08364233467410        3.15324018895519       -5.74213496535549
H            0.48004148004947        5.47093241507232       -5.27489985530550
H            0.73189011867136        4.66824277560252       -3.00009452792824
H           -3.56856769880323        5.05737680752433       -6.98570243725019
H           -3.76823142235123        5.83061319713169       -9.30578649394453
H           -1.75464619889171        6.07102880259130      -10.71107371474143
H            0.46411823337563        5.52388134053468       -9.78142669838283
H            0.67120309054883        4.73081226660901       -7.46939223971393
