39
 energy: -50.416169042238 gnorm: 0.000602758879 xtb: 6.7.1 (edcfbbe)
C            0.99031975212862        0.09517307486318       -0.50400076674773
C           -0.08408911511428       -0.83981465835997       -1.04587813385217
C            0.37022396893223       -2.29868394970039       -1.13546792005070
C            0.81141307660906       -2.91889087253808        0.19349923748492
C           -0.25492929489264       -2.92239510215552        1.28842778301928
C           -1.45336792021782       -3.83452841355471        0.98822614488508
N           -1.04804113446181       -5.22735674072051        0.98959794369564
C           -0.92075416621091       -5.87741870512187        2.15533295563301
C           -0.46605810887995       -7.17114708237095        2.21180775629725
C           -0.10973868163464       -7.84412785210452        1.03391784739888
C           -0.25320821388500       -7.13514174800227       -0.16624764043297
C           -0.72028910545143       -5.84275431235067       -0.15410844017366
C            0.38414669014986       -9.21783074384935        1.05583168490621
C            1.36151225154870       -9.64469211523089        0.15246712644436
C            1.79522127498632      -10.96036781443407        0.22077908126709
N            1.32174171501188      -11.83368464532843        1.08884992639277
C            0.39591861378231      -11.43963852422011        1.94262781551270
C           -0.10520059043765      -10.14667768922920        1.97825007088024
H            1.20060113248263       -0.10103212866737        0.54462666344838
H            0.66188814718775        1.12732730912462       -0.59090155831221
H            1.91253234089842       -0.01620808329916       -1.06933461373338
H           -0.98420046356163       -0.75880254331114       -0.43257717702790
H           -0.35484451889989       -0.51623493204143       -2.05260815129838
H           -0.43703041206004       -2.88602781796603       -1.58217545039484
H            1.21894248451576       -2.35308537771845       -1.82002430058710
H            1.15859610536012       -3.94072001212092        0.01033673574017
H            1.66881650477796       -2.35966074894439        0.56690562700119
H            0.19998422988193       -3.23349583162492        2.23168301620516
H           -0.63690292583993       -1.91183345652064        1.42558011977049
H           -2.22162514112185       -3.69228613812567        1.75079465867733
H           -1.87627391863926       -3.58524102184936        0.01483829136374
H           -1.19332334877193       -5.33750035340836        3.05015524487024
H           -0.36769814892777       -7.65630025205424        3.16957560203457
H           -0.01815344245071       -7.60250013785942       -1.10918206697251
H           -0.84851138353415       -5.28548814522588       -1.06992369783142
H            1.80054384539842       -8.96208332289105       -0.55791791005061
H            2.55462525767125      -11.33110993475549       -0.45363750529818
H            0.03999584194107      -12.19290794051889        2.63141030190408
H           -0.88277319826084       -9.88285123580635        2.67783369793001
