44
 energy: -54.635435866525 gnorm: 0.000296989564 xtb: 6.7.1 (edcfbbe)
C            1.30704431782558       -0.76404611023359       -0.24602814743112
C            0.63104013487755        0.06704372368482       -1.13033222526476
C           -0.73543872138355       -0.08183263137181       -1.29005639240223
C           -1.41912459093856       -1.05037401005917       -0.57293383726930
C           -0.73687056938996       -1.88590938175663        0.29706386197265
C            0.63080347729570       -1.75152533586540        0.46202415665324
N            2.71234203985668       -0.62390766643902       -0.08943492689946
N            3.32077488174041       -0.30700357803345        1.07983286147635
C            4.65187385197346       -0.33833677521420        0.89651736078820
C            4.88681866779465       -0.68963030947656       -0.42578552392483
C            3.64865299314548       -0.86561018891400       -1.02518691376037
C            3.32655098599241       -1.26480735429557       -2.41150781287516
C            5.63568322524684       -0.07076270284697        1.96693047853489
C            2.61712128910347        0.09557568494067        2.27462340610246
C            2.58410498816081        1.61880317289692        2.44974439932594
C            1.66506514292495        2.33640817696696        1.46103085215982
C            0.17059911639371        2.07913986711067        1.67075084327097
C           -0.38316286352799        2.56737974568212        3.01131125377311
C           -0.24836145343132        4.07229627710859        3.20903381205570
H            1.16877826855824        0.82252832174152       -1.68180212603303
H           -1.26489498105554        0.56236659272410       -1.97359011395574
H           -2.48480044913665       -1.15900769263604       -0.69597997349445
H           -1.26631809245003       -2.64867790033752        0.84551646829709
H            1.17102955655435       -2.41644062422894        1.12000522784872
H            5.84186793654492       -0.80969019514988       -0.89297877378394
H            2.37476195007277       -1.78891215811683       -2.45898933839939
H            3.26614343214617       -0.38791157510176       -3.05642739537840
H            4.11352259057635       -1.90552507109571       -2.80087290537181
H            5.65055099039162        0.98439502721386        2.23604393835360
H            5.40171614926763       -0.64049059156782        2.86495462889579
H            6.62837836543561       -0.34771275285890        1.62455992480893
H            1.59909705623304       -0.29139322282265        2.23062834677480
H            3.12504672748262       -0.36231948449397        3.12698504765525
H            2.25543462240350        1.82733349464167        3.46684027410187
H            3.59479988949606        2.01566879797914        2.34590324050653
H            1.84703319722299        3.40729969605165        1.54764564723997
H            1.93471598054871        2.05191378204797        0.44073072664018
H           -0.36866947134359        2.58912464032587        0.86988884354177
H           -0.04829423107685        1.01289769805235        1.57122046114442
H           -1.44154092912409        2.30196826644892        3.04704864354772
H            0.10485618732846        2.04430095542606        3.83618296054624
H           -0.67669841312306        4.60696341612316        2.36458722863031
H           -0.77673717938842        4.37791470897286        4.10791816468411
H            0.79178393278071        4.36929526677968        3.31634334691291
