24
 energy: -28.935297017059 gnorm: 0.000581203529 xtb: 6.7.1 (edcfbbe)
C            0.24935299447155       -0.30287116136455       -0.36482939025423
C            0.68192378748145       -1.75207950574641       -0.53774672731539
C            1.68907999876711       -2.20593706819822        0.53795074395777
C            1.06601742298850       -2.17624717476338        1.89180836577030
C            1.17549334813745       -1.06555473667726        2.73375676892432
C            0.53100772587606       -1.06890569776803        3.95970617966715
C           -0.20950871224089       -2.17254669797555        4.33639018045382
N           -0.31198358986638       -3.23112887750453        3.52826673461866
C            0.30043940611909       -3.24223369430095        2.33857478395123
C           -1.07097726956699       -4.39429761792154        3.93316186525875
H           -0.29667777405488       -0.15623781774347        0.56565775405105
H           -0.40175221499275       -0.01293839034623       -1.18458489737014
H            1.11169641689678        0.35976762546801       -0.37076389349407
H           -0.19307936348574       -2.40518619997001       -0.51550177668361
H            1.16058200164865       -1.86970657998854       -1.50973816889446
H            2.01972890192778       -3.21820991764032        0.30252194555990
H            2.55297067234294       -1.54170185983498        0.51309634756499
H            1.76307024397509       -0.21377970070466        2.42796507881430
H            0.60020868486080       -0.22362998819909        4.62531129247275
H           -0.72025644294565       -2.21408294101335        5.28624718170761
H            0.17786301872472       -4.12890413411331        1.73290191853313
H           -1.76365621792846       -4.68663074288893        3.14399735919245
H           -0.39770795394464       -5.23128121924403        4.12681190695460
H           -1.63627508519086       -4.18538590156060        4.83843844655950
