5
 energy: -4.494876559899 gnorm: 0.000423875176 xtb: 6.7.1 (edcfbbe)
N            0.96427188351253       -0.08441809084602        0.03996620519554
H            0.62099095579529        0.87110008132985        0.21238765119256
H            0.62098696560504       -0.41285529090415       -0.87374646845569
H            0.62099024974739       -0.71149749161950        0.78125940440110
H            1.99411994533975       -0.08441920796017        0.03996320766649
