13
 energy: -14.273289699254 gnorm: 0.000806626649 xtb: 6.7.1 (edcfbbe)
N            0.91874936246989        0.05161422488668        0.46991957493128
C            0.53528055315450       -1.35804550471727        0.34352887622689
C            0.83351955386616       -1.98212119502682        1.72637769454913
N            0.55081974806889       -0.89686567033218        2.68482111503466
H            0.33517639623717        0.67658475176918       -0.07449823328090
H            1.88846412176300        0.21509296552430        0.21699138988387
H           -0.53328062134484       -1.41650591100681        0.13373089720614
H            1.06840330727207       -1.88992032711034       -0.44379312861508
H            0.23233207488375       -2.87141456678829        1.90263345703311
H            1.88712496704954       -2.25234415549711        1.79648129365798
H           -0.41165969626108       -0.90254309200661        3.02104520933128
H            1.18308434219876       -0.86569685465727        3.48164336742336
H            0.72342589064220       -0.04205466503743        1.88303848661830
