95
 energy: -99.456044530211 gnorm: 0.000220441284 xtb: 6.7.1 (edcfbbe)
C            0.99635338164077        0.23638340103023       -1.21436512396519
C            1.19993309531251       -1.20214292331523       -0.75435314920005
C            1.42626224627196       -1.32739485523567        0.75306585521312
C            0.26093299855331       -0.85248064120415        1.62381118468201
C           -1.06720002689896       -1.57222912853197        1.38031729931256
C           -1.02096720522878       -3.09158077735799        1.55312427778334
C           -0.56354854870845       -3.57088942787155        2.93188706875124
C           -1.44350864068374       -3.11890864500817        4.09911809683504
C           -2.90285506297991       -3.57452217059704        4.02649090441150
C           -3.10238752285853       -5.08611052667259        3.89429951210479
C           -2.45263754741725       -5.91626311097489        5.00314929780150
C           -2.98197454551893       -5.64383319824005        6.41272462888066
C           -4.48695674616444       -5.87546500123447        6.61422452166669
C           -5.07076522959480       -7.19423324531871        6.09854170514814
N           -4.99406055396203       -8.39836766588575        6.98560344190384
C           -5.88495289925221       -8.26963319034024        8.18244934560773
C           -7.40068910712828       -8.30466444107826        7.96513066065620
C           -8.07206544974335       -9.68459379245341        7.89974225787888
C           -7.69748093976356      -10.65732648250299        9.01991900917136
C           -8.00658200925105      -10.16666168417260       10.43575119664401
C           -9.48944600191638       -9.91045433435532       10.71442545339979
C          -10.40980644521234      -11.10852355040001       10.46923737376016
C          -10.03893463065302      -12.37957218582046       11.23600607344215
C          -10.03234648474622      -12.23786101982131       12.75910487602132
C          -11.37531947865608      -11.84357617089312       13.37667448131314
C          -12.53097259953254      -12.80091683705119       13.07796196541310
C          -12.29744299534417      -14.25293474962809       13.50085803029530
C          -12.01528600969430      -14.45508876159351       14.99040367454559
C          -13.17028494348028      -14.02216192159244       15.88537047793255
C           -5.36598096818500       -9.57193619337246        6.17439344295770
C           -3.61921934677426       -8.60632668939726        7.47572002063498
H            0.07003575553100        0.64746596576328       -0.82152446395761
H            0.95142035572648        0.28144911960674       -2.30008991195841
H            1.82069708288441        0.86261349852320       -0.88034601524090
H            0.34066665900616       -1.80503052739960       -1.05372988086575
H            2.07626970158675       -1.61289484432408       -1.26191187333953
H            1.65250191222555       -2.37008850398339        0.98684101830883
H            2.30747376241937       -0.73890908453720        1.02112595674669
H            0.54875016737765       -0.96859274630687        2.67126496771665
H            0.10302645508978        0.21436105838286        1.45599300265944
H           -1.81289007222811       -1.15220703165848        2.05954077474507
H           -1.40814548688549       -1.35891666362225        0.36552126715366
H           -2.01560177814358       -3.49094336628433        1.34018204803078
H           -0.34370034909602       -3.51346101881401        0.80828971100452
H           -0.51102864254702       -4.66239579264723        2.91518010512664
H            0.44949147440684       -3.20948878791164        3.11547358276092
H           -0.99423094878211       -3.48000535761376        5.02771840671012
H           -1.43557699878930       -2.02920919566296        4.14942409141448
H           -3.42031919149809       -3.21199869917554        4.91829394115614
H           -3.38124943555196       -3.09951182110530        3.16881303384276
H           -4.17581932495265       -5.29025049695904        3.85472821495185
H           -2.68205599494203       -5.41352586834957        2.94245406030065
H           -2.55850291305542       -6.97680424071755        4.75343663087609
H           -1.38220124309049       -5.71127318562706        5.01115605594890
H           -2.39415300792944       -6.23085641751120        7.11924687819749
H           -2.79329768994797       -4.59723629852263        6.65286530651958
H           -4.72836237943868       -5.72519598624652        7.66747512170651
H           -5.01104605274379       -5.09054698586652        6.06647310929587
H           -6.12866240677326       -7.04093905998696        5.88011595908381
H           -4.57343364794048       -7.44997043446692        5.16229466565523
H           -5.61605212735039       -9.06938738744751        8.87337940275965
H           -5.62646900247242       -7.32173118201544        8.65681547040614
H           -7.82989312107273       -7.77641620455149        8.81808740962287
H           -7.68301815938327       -7.73348384548869        7.07955892958517
H           -9.14733495182953       -9.50990323973351        7.94344908308717
H           -7.87972423856287      -10.17224643052296        6.94344530234742
H           -8.24425592565490      -11.58366250205121        8.84425581463447
H           -6.63496718912004      -10.91457434805551        8.96335549063894
H           -7.64286178135365      -10.91928466120846       11.13657600496511
H           -7.45285244520019       -9.24662963300864       10.64171097670478
H           -9.58313686408186       -9.59741590981525       11.75525989018335
H           -9.84021435920611       -9.07698196209949       10.10059287971498
H          -11.42389186219239      -10.81224102325998       10.74105699875831
H          -10.42615758817146      -11.34378386700069        9.40203306691367
H          -10.74768871116748      -13.16012821274389       10.95499984413643
H           -9.05051204463528      -12.72196973075296       10.91944908742444
H           -9.71170461572871      -13.19060435702380       13.18445268390135
H           -9.28860129983984      -11.49289745349145       13.05237124222020
H          -11.24096660807307      -11.77230460117094       14.45761234670067
H          -11.65744408371059      -10.84778115609502       13.02651060552560
H          -13.42223195004599      -12.42252802371023       13.58167548098781
H          -12.74384738014090      -12.78804009855079       12.00651496754706
H          -13.18882116303968      -14.82741609652416       13.23605322120812
H          -11.46521455839271      -14.66828487480279       12.92821033793162
H          -11.82186676551003      -15.51793352939627       15.15547591582143
H          -11.11131153294214      -13.91378662253056       15.27546652328532
H          -14.09144917116988      -14.51501914472302       15.58234637216303
H          -12.96496297891073      -14.28817026655560       16.91974500142851
H          -13.32285962473064      -12.94705784276536       15.83794551950976
H           -4.59865791597975       -9.76410997248995        5.42576248013968
H           -5.46061298982971      -10.44992666792806        6.80990627457403
H           -6.30963302026231       -9.39740527530989        5.66414504332239
H           -2.91703205123945       -8.56524670379404        6.64569320711302
H           -3.35603533122244       -7.84350946128965        8.20382558943605
H           -3.53873213212465       -9.58201501815181        7.95291790969596
