32
 energy: -40.658918354389 gnorm: 0.000466419105 xtb: 6.7.1 (edcfbbe)
O            1.25489822914731        0.15712014334593        0.33032638028178
C            0.50166266528116        0.81775839964531       -0.65478484973844
C            1.03689192086671        2.25017028075253       -0.91109881838307
N            2.48459526870661        2.21452319057813       -0.80841836495179
C            3.26219904982363        3.12745032322211       -0.16380440402816
C            4.55365627317822        2.71105191913822       -0.27268170658438
N            4.54390540165110        1.55000949324464       -0.98309545853317
C            3.28285215547480        1.26828893354408       -1.29328805935971
C            5.69302975676846        0.71450708770093       -1.25552475481846
C            5.93635473656273       -0.25108092845706       -0.09951630626689
C            0.59979379978892        2.81276806579989       -2.28120677299645
C           -0.92330024483172        2.84256179287614       -2.38476726274006
C            1.16000138414932        4.21919469379975       -2.48882527645353
H            0.87297802822348        0.30224131026328        1.20214499411028
H            0.59316919602700        0.22396559751750       -1.56915465502307
H           -0.55603273616491        0.87256649406839       -0.39060823972454
H            0.68569201117399        2.92295239971119       -0.12143420357344
H            2.85724135079099        3.99386140448085        0.31771106641243
H            5.45563037601103        3.15396900164051        0.09705335022010
H            2.96478761979400        0.40020511009185       -1.83455161589727
H            5.50805917856121        0.16044659099259       -2.17761740053292
H            6.56130299436406        1.36050964871180       -1.39920357654093
H            5.07026874237989       -0.88916022675014        0.05724414380313
H            6.79176670257354       -0.87921242768898       -0.32744181953643
H            6.14299363450579        0.29021706866289        0.82004787292725
H            0.99582787743651        2.15454428799637       -3.06218466092559
H           -1.35258800792329        3.41985204579893       -1.56982805371943
H           -1.21376457709523        3.31331150884879       -3.31950395021593
H           -1.34724043506144        1.84339959740313       -2.36952172658390
H            2.24737704921591        4.23390328886623       -2.46490187778424
H            0.84592752219681        4.59659882933678       -3.45738119266378
H            0.78243307642371        4.89814507485731       -1.72807280017931
