21
 energy: -32.482804486196 gnorm: 0.000529943748 xtb: 6.7.1 (edcfbbe)
N           -0.63413866942222        0.61067144031038        0.68816518275781
N            0.42759509439871        1.30320896360800        0.09490730879275
C            0.82224446799214        1.05711414797280       -1.15736088093921
O            1.72572817088830        1.62297693723645       -1.72255351899948
C           -0.00668794686604       -0.04618985529850       -1.87906546483052
N            0.76423823781425       -0.50026191384080       -3.00337947914314
C            1.05913131000380        0.38639669481268       -3.96395876629529
C            1.92524651367850        0.05823241724640       -4.98909372536108
C            2.49320059505334       -1.20621982624636       -5.02208931973611
C            2.16530249479565       -2.11321814076873       -4.01925703784491
C            1.30780138887249       -1.72517982062265       -3.01459981680451
H           -0.34333451101460        0.20629015399057        1.57584077094620
H           -1.41977973127533        1.23371413996630        0.86737212195093
H            0.92687817491637        2.03300198443776        0.59992464064790
H           -0.22900818742271       -0.85372399555557       -1.18216499125922
H           -0.94549162787047        0.40925695423314       -2.20433051469417
H            0.59030706786063        1.35647708728168       -3.91251673447290
H            2.15173834651724        0.79092993305354       -5.74670488796570
H            3.17540080446981       -1.48381175813887       -5.81006670705596
H            2.58137758669582       -3.10776472316507       -4.01099020160049
H            1.04417041991316       -2.39213082051268       -2.20710797809469
