31
 energy: -43.711954797832 gnorm: 0.000940584360 xtb: 6.7.1 (edcfbbe)
O            1.27041357041720        0.17584680888945        2.06087420645075
C            0.71134465168200        0.71158749697123        0.97708991415037
O            1.34325323468826        1.16703633951887        0.06280810412656
C           -0.79925250385721        0.66648263068075        1.06480080303462
C           -1.47177837642862        1.27840432370313       -0.16226817754707
C           -1.23712610602653        0.48048175844621       -1.44776562878469
C           -1.95748990151850       -0.86566193511743       -1.50997773825489
C           -3.48239642246795       -0.74359482163380       -1.64105168044593
N           -3.84309931516940       -0.12400614016697       -2.89431038373570
C           -3.92539593983953       -0.75702935443385       -4.09637693974612
C           -4.20245855386021        0.18871661094558       -5.03633560906835
N           -4.27928065741629        1.38713211195169       -4.39363105320102
C           -4.05342914550592        1.17332188591343       -3.09977636937703
C           -4.54978607118838        2.65265320419532       -5.02115683655780
H            2.23921369402110        0.22236245903428        2.01754942267460
H           -1.09483658770231       -0.37168389243045        1.22383621077708
H           -1.08442515829855        1.21812505400566        1.96296687041348
H           -2.53904507706319        1.38954204248154        0.04050601292876
H           -1.05360053335134        2.27514465437399       -0.30892715028788
H           -1.53042806853507        1.09239878305598       -2.30525395760772
H           -0.16588106145538        0.30637982546724       -1.54030484641251
H           -1.57627953416395       -1.43583963086283       -2.35905055742828
H           -1.74914934213138       -1.44199475130815       -0.60992035856057
H           -3.93642024112285       -1.73564781730228       -1.60669163831634
H           -3.88744376718903       -0.14264572020547       -0.82603969027977
H           -3.79150854312461       -1.81420601892716       -4.20253751504017
H           -4.34775158172329        0.09045678758516       -6.09297721878436
H           -4.05565983198397        1.92882620527516       -2.33780894532337
H           -4.65136290744810        3.42842054448189       -4.26490377042461
H           -3.73527682886159        2.91855545848240       -5.69698252859893
H           -5.47272309337678        2.59311509693301       -5.59912295077050
