54
 energy: -77.757259420240 gnorm: 0.000198125475 xtb: 6.7.1 (edcfbbe)
C            3.35549101939613       -1.32806915519026        2.49586652511580
O            2.21730954477387       -1.17600581907429        3.34636247388884
C            1.45310399685471       -0.11691090834613        3.20174456315081
O            1.63845369359706        0.79525501492529        2.43082370219436
C            0.21859933113007       -0.20582143197339        4.10936011376320
C           -0.05549309621084        1.14150215255414        4.82736147374745
C           -0.24130792264979        2.25295723742569        3.85732758905134
C           -1.33151516219218        2.48406208382334        3.06148258364271
N           -1.06407275450527        3.56690585945859        2.28429990632716
C            0.15342602827667        3.99377546661813        2.59454549090135
N            0.67643040552288        3.22047142062615        3.54344885202442
C            1.99354011196309        3.42400002211136        4.13676420209692
C            3.03525373495838        3.65786630614814        3.04838400038008
C            1.92472425151775        4.57980001717028        5.13209915824889
C           -1.94410921603978        4.11797034685278        1.25994004710674
C           -2.15797562695572        5.61002922286477        1.49032047071673
C           -1.35944051744841        3.82808609959306       -0.11973261689252
N           -0.88289836820879       -0.57702697972179        3.25982646806317
C           -1.57819340178787       -1.76631658696822        3.22981485629374
O           -2.25995854511175       -2.02095519887745        2.26413265653737
C           -1.46454343848352       -2.64660683864023        4.41958956278966
C           -1.21211525418289       -4.00031341720889        4.21836188378914
C           -1.13010668197264       -4.85881656842408        5.29926852652566
C           -1.32006509722678       -4.37742238050654        6.58441275071281
C           -1.60082377268233       -3.03611637324750        6.78777192051856
C           -1.67062609638953       -2.17003657361153        5.71134512480497
H            3.11799265639480       -2.05587257589550        1.71987405397881
H            4.16956510151473       -1.69919585333641        3.11448374458951
H            3.61780047707773       -0.37269780650170        2.04021164942273
H            0.37545415540563       -0.99141818728642        4.85273289559377
H           -0.97498117377068        1.02436832440565        5.40296045900958
H            0.75734771885256        1.34787736882408        5.52197220159522
H           -2.26055305593201        1.95337580973455        3.01005263237779
H            0.64474739931509        4.83360204298188        2.14846741226595
H            2.24851713024242        2.50165685119974        4.66352435492962
H            2.92407974646376        4.63508540394416        2.58726004798780
H            4.02793578335884        3.60694653440572        3.48587322643469
H            2.95320054908035        2.88665040263219        2.28686487087278
H            1.17107884250351        4.39460780396977        5.89407760827447
H            2.88634161844308        4.69384459157584        5.62317583755828
H            1.68752440175691        5.51246964581614        4.62632377393742
H           -2.89917963071766        3.59460444319640        1.36636008595031
H           -1.24686783575940        6.17364513553538        1.30877165540476
H           -2.91842346885048        5.97276567313589        0.80540941524567
H           -2.49690038204516        5.80152631901907        2.50565089920197
H           -1.18458252575954        2.76293346737981       -0.24994527907166
H           -2.05696390687649        4.15475479109409       -0.88490331288037
H           -0.42063003887828        4.35661403054935       -0.26396173410120
H           -0.94982341770276       -0.06240580931877        2.38953536627102
H           -1.08358965083238       -4.36580751485888        3.21105733428697
H           -0.92782276545315       -5.90639895683392        5.13833050701148
H           -1.26304947860508       -5.04901262297767        7.42715411663961
H           -1.77205925198558       -2.66456661446869        7.78684429310826
H           -1.92358616322989       -1.13139571635370        5.87065959861192
