61
 energy: -73.917202707037 gnorm: 0.000674236942 xtb: 6.7.1 (edcfbbe)
N            2.01306690569300       -1.03140034689254        0.15991979349053
C            0.67618580718235       -0.61212184814563        0.05014138725583
C           -0.28464857476915       -1.61479395026522       -0.18532703946103
C            0.10717827625651       -3.06905187653838       -0.32451340060366
N            0.31355781162280       -3.67664837296810        0.97980861087809
C           -0.26523786223498       -4.81576854594704        1.44429862740928
C            0.17553068302585       -4.99938492392552        2.71853224894025
N            1.01383962288822       -3.96571919901041        3.01610517703074
C            1.08057633654742       -3.17992180409315        1.94586281236971
C            1.71109518989517       -3.78782119499675        4.29972442459843
C            2.68987135427472       -4.95148370396652        4.46679667346872
C            2.46411059443661       -2.46080695338530        4.29206607060250
C            0.66254541767738       -3.78621095323038        5.41377806941398
C           -1.63182763987457       -1.31613787977472       -0.26383595557080
C           -2.08671140867165       -0.01500169022255       -0.11193173445350
C           -1.13027021627259        0.95041137445770        0.14989024011129
C            0.24059322846564        0.70781105077408        0.24715612696142
C            1.07988692610422        1.95426635287579        0.57020786179157
C            0.86596350775164        2.98856378426533       -0.54829847314335
C            0.59041116363979        2.51961200691475        1.91578804912185
C            2.59960618374915        1.78840016649499        0.71153671676958
C           -3.57198276943023        0.28767243948762       -0.21665479664868
C           -4.08385579299200       -0.17833056249157       -1.58670036488459
C           -4.30874033927010       -0.46674096505267        0.89959314330566
C           -3.88341480007268        1.77938178609586       -0.07491603318260
H            2.26852900433158       -1.72500925357296       -0.53105939779860
H            2.66987720173620       -0.26966916507031        0.13032225365564
H           -0.69563277923771       -3.61874048513744       -0.81830092976478
H            1.01801076676262       -3.20107395736032       -0.91747955779697
H           -0.93467244851206       -5.40959006685317        0.85657580617749
H           -0.05616861153664       -5.78333962265371        3.40801103545458
H            1.65528317240951       -2.27908963295096        1.82061349657690
H            3.41835249543521       -4.96036800709624        3.65927951949094
H            3.22410230878261       -4.84482499764270        5.40596558862615
H            2.17277237578201       -5.90701199668998        4.47943141508641
H            1.78542510329279       -1.62537627591796        4.13925292046688
H            2.94950654809727       -2.32509412034641        5.25416583011951
H            3.23606745210521       -2.44587771735016        3.52694754946879
H           -0.08168328217883       -3.01187290234597        5.23935977655611
H            0.15743359610413       -4.74506297374489        5.49338096595287
H            1.14587394986706       -3.58484670237836        6.36504444646525
H           -2.32894201793650       -2.11815112203747       -0.45237174655374
H           -1.46675181608281        1.96188573577806        0.28180212261144
H           -0.17220517388975        3.28983127432838       -0.63906718818058
H            1.45458726743564        3.87995803190058       -0.34521239689880
H            1.18330066958416        2.57917229502488       -1.50557614639429
H            0.73090101823284        1.78386009744728        2.70597441385949
H            1.15939138589947        3.40977959096910        2.17232829465635
H           -0.45913191042851        2.79277146320643        1.89167751082690
H            2.86581917177891        1.09465593206311        1.50720774919358
H            3.07227957565878        1.51352086737867       -0.23078639254456
H            3.01790764225840        2.75532229462865        0.98743903661131
H           -3.97238954093589       -1.25160102978343       -1.71396493566642
H           -5.13814886496988        0.06488252220751       -1.69090859023118
H           -3.53588659824988        0.31990565882863       -2.38328818987881
H           -3.93667356812247       -0.15694348694944        1.87420652649543
H           -5.37299183275761       -0.25072879404809        0.85402894667945
H           -4.17762073737925       -1.54189477609216        0.80774849039909
H           -3.58723241543081        2.15478240594835        0.90198588991937
H           -3.38780926999860        2.35853479411333       -0.85051990146636
H           -4.95467944352067        1.93412993179322       -0.17764244774767
