41
 energy: -54.179222742500 gnorm: 0.000292340380 xtb: 6.7.1 (edcfbbe)
C           -0.35227784609201        2.67972506352258       -0.35196613620416
N           -0.41866777035384        1.56090683750422        0.59687606695175
C            0.10954033290118        1.94572345015194        1.91333375254239
C           -1.76743284001184        0.94802061630567        0.68393628133354
C           -1.56519782729251       -0.55198973416367        0.93598863173976
O           -0.52340903480574       -0.93470764642424        0.06323330652110
C            0.19356329968318       -2.11792280021337        0.45210648019938
C            1.12086965306605       -2.51758474917266       -0.67629808765523
C            2.07906367216789       -3.49590545669717       -0.43808301999003
C            2.93821415120681       -3.88825540198982       -1.44756220753994
C            2.85004076020922       -3.30716571141986       -2.70208666479867
C            1.89509419280556       -2.33587686608877       -2.94319942411697
C            1.03187009487130       -1.94170347908925       -1.93458436477837
C            0.97289601813227       -1.84865259585790        1.72134838547127
C            0.67625354349759       -2.50388399637112        2.90855021133022
C            1.39404933620218       -2.22079423319849        4.05917920504401
C            2.40561952593793       -1.27595767617008        4.03296913265015
C            2.70450765243780       -0.61606977725120        2.85151394137268
C            1.99081478787926       -0.90023186449149        1.70114853915421
H           -1.01336687542432        3.48250712905758       -0.02771746996226
H           -0.65189592099796        2.35117172811846       -1.34496349125183
H            0.66487808171523        3.06350816732181       -0.40585332686377
H            0.13880421953508        0.74862658426495        0.22771505459066
H           -0.48487483175504        2.76059203109040        2.32503999281043
H            0.08297864248383        1.09964302321574        2.59665189603030
H            1.14234698060015        2.27540219244948        1.82019155324793
H           -2.36041270491050        1.41620358642325        1.46873866971642
H           -2.27070306015401        1.08019497576875       -0.27500200216907
H           -1.28390424996386       -0.74540445222896        1.97972055234349
H           -2.48605030072062       -1.10388597322365        0.71713641468528
H           -0.53347021242431       -2.92514764323386        0.62409636078065
H            2.14865681962525       -3.95000921435219        0.53947424830120
H            3.67745273373262       -4.64991918457380       -1.25403473760369
H            3.52069893250032       -3.61428086028569       -3.48941415346613
H            1.81555416035950       -1.88428233494039       -3.92045225658795
H            0.27795853472063       -1.19451705075402       -2.13096213512902
H           -0.10715995472883       -3.24792085507332        2.92981253789320
H            1.16412180490347       -2.74263026527016        4.97487874522697
H            2.96777322917663       -1.06111630951151        4.92813262860383
H            3.50309057822171        0.10980373794608        2.82471801542100
H            2.24133169106283       -0.41227299108808        0.76809887415377
