29
 energy: -34.732316539717 gnorm: 0.000339846475 xtb: 6.7.1 (edcfbbe)
C            0.57344170445713       -0.32146324782747       -0.12714265841643
C            0.55827344357077       -0.09200556516575       -1.63404513852553
C            1.32377033454905       -1.17665029488725       -2.39796976078821
N            0.74316659648183       -2.49815530718964       -2.21419342456073
C           -0.34208514351987       -3.03378364643163       -2.76795576240962
N           -1.00872805095124       -2.63622434665316       -3.85478033311246
C           -0.70919183524878       -1.57773942575865       -4.78912451220594
C           -2.08431759174821       -3.56986443291504       -4.17093491369473
C           -2.00053408097157       -4.61924955029022       -3.05671288101096
N           -0.88785238313723       -4.14509861023295       -2.25282467538069
C           -0.43413917014275       -4.85391514245792       -1.08321510562237
H            0.03063772861470       -1.22530969973335        0.14302858654283
H            0.09868509875929        0.51321704325186        0.37977712696822
H            1.59394150758184       -0.40154920537943        0.23931675511367
H           -0.47549236753845       -0.05010151091949       -1.98429263732709
H            1.02687626889510        0.86644594895644       -1.85785004335027
H            1.37672485511274       -0.93803349276613       -3.45823173444569
H            2.34523548050159       -1.23401438911250       -2.01726731699436
H            1.03730666699985       -2.94941367492450       -1.35956009244829
H           -1.52087650053238       -1.53038845009441       -5.51158819838859
H           -0.64855725290321       -0.61184064099669       -4.28961597766075
H            0.21827899116082       -1.77314939047669       -5.33122749072863
H           -1.92333324254308       -4.00378102510762       -5.16169032884586
H           -3.04205766876102       -3.04222469700461       -4.17477870825415
H           -1.79291173711135       -5.62209325664883       -3.44107231237690
H           -2.91169220748990       -4.66032302319228       -2.45342412704023
H           -0.41959565831575       -4.20216098732608       -0.20658604986948
H           -1.12957708545308       -5.66517339421816       -0.88436323587945
H            0.55856329968318       -5.28488658449833       -1.23562504928695
