36
 energy: -50.522202634936 gnorm: 0.000304423866 xtb: 6.7.1 (edcfbbe)
C            0.31313702543127       -0.97814397013148        0.03736776975215
C            0.13259848376024        0.32789001581221        0.03685297015531
C           -1.18540761583252        0.98995234292623       -0.26730353612805
N           -1.55077371759499        1.91275192194164        0.78595459456936
C           -1.49151605911883        3.23885029317676        0.73934634245835
N           -1.86163494142725        3.78320812959022        1.89345721085320
C           -2.16875832760327        2.75678586707268        2.76163453958283
C           -1.96663593152193        1.55674551151583        2.05161585385667
C           -2.18817416482489        0.31778005045690        2.64144573147154
C           -2.61899206982797        0.31994388365075        3.95112598937266
C           -2.82821423598619        1.51019012046775        4.65546241320223
C           -2.60987715879042        2.74421278578929        4.08049976722711
C           -1.83092603409209        5.20027989973340        2.20162854820152
C           -0.41424070024821        5.63789588530509        2.50277400142236
C            0.29202997453803        6.40852667373456        1.58955196046821
C            1.59284483904455        6.79521050624936        1.86404208192552
C            2.19767797317491        6.40537507570929        3.04677393868899
C            1.49931358981419        5.62941066622995        3.95728801877508
C            0.19797088350323        5.24540618214907        3.68687366671039
H           -0.48608192407502       -1.66742449872929       -0.18109384351011
H            1.27616852717914       -1.41321996897171        0.23657799939473
H            0.94775086848969        1.00667289042657        0.24699555642171
H           -1.11391992140226        1.55343931213425       -1.20207342031983
H           -1.97345876545216        0.23909561433615       -0.36696752664358
H           -1.19073741995943        3.80348355083942       -0.12347715693896
H           -2.02443401286003       -0.59995866859755        2.10220954153450
H           -2.80200714627814       -0.61903660942760        4.44841105581766
H           -3.17001791030186        1.45828159658897        5.67684993317426
H           -2.77832288190532        3.65360572741346        4.63390977631092
H           -2.22446885476251        5.75389082723683        1.34626313315495
H           -2.48024458208421        5.37176381574248        3.06172022271632
H           -0.17881446225407        6.72399112943206        0.66955314659929
H            2.13140023799959        7.40349765646275        1.15422700018991
H            3.21014335727231        6.70923549299605        3.26130890457549
H            1.96558312148105        5.32688795966885        4.88192895906227
H           -0.34362004348450        4.64408233107499        4.40279485589819
