22
 energy: -27.099936559065 gnorm: 0.000830902329 xtb: 6.7.1 (edcfbbe)
C            0.95140451196411        0.03020423539366       -0.06580353128658
N            0.48570072212049       -0.01501055756641        1.29350703004661
C            0.27052891786982        1.06791756566442        2.09009858367385
C           -0.15408740511725        0.60132832411395        3.29719662528214
N           -0.19229303610906       -0.75586458335562        3.22033177933180
C            0.20059812190864       -1.10559404188498        1.99824905334482
C           -0.57722819134587       -1.66300628702761        4.29797785862393
C           -1.73582677337445       -2.54788044551361        3.85004756098186
C            0.63432020018384       -2.48068185956628        4.73618141838701
H            0.31105838429473        0.68257977726183       -0.65869607494460
H            0.94055304122999       -0.96816239737415       -0.49637075353774
H            1.96934500801708        0.42067926459707       -0.10182648701665
H            0.42901301194145        2.07224238969921        1.75376524102636
H           -0.42624644764886        1.13717510105224        4.18372600246795
H            0.27556589856288       -2.11032822382689        1.63164433960796
H           -0.90527483678023       -1.02798307051819        5.12618607202469
H           -1.42635344567416       -3.24397547047369        3.07523506264496
H           -2.09270367337882       -3.12574115417704        4.69715283253455
H           -2.56246331704322       -1.94764935165643        3.47762824489355
H            1.45874459819210       -1.83189775379252        5.02099759991577
H            0.36732326963844       -3.08634355430941        5.59647110077699
H            0.96650144054838       -3.14570790673949        3.94363044122077
