70
 energy: -80.997152898079 gnorm: 0.000300143647 xtb: 6.7.1 (edcfbbe)
C            1.36795900850807        0.63258908823050        0.00162192145025
C            1.44635995166456        0.23419901708387       -1.46738668835263
C            1.59295027016430       -1.27364988915719       -1.67684262325847
C            0.42719973456978       -2.11472811422687       -1.15298572295574
C           -0.93504938397528       -1.78781487374186       -1.76789578393834
C           -1.01319996775422       -1.94107680009855       -3.28834660864330
C           -0.65246991591660       -3.33055967301321       -3.81772903117155
C           -1.48272388200607       -4.47786741497761       -3.23999509357849
C           -2.98764025027818       -4.37830327654483       -3.49529330629730
C           -3.39541423449857       -4.38130153277029       -4.97029212146819
C           -2.92166982079779       -5.59704025822341       -5.77058160008608
C           -3.32238582968568       -6.95311803210105       -5.18661192617537
C           -4.82993671723059       -7.18015438372880       -5.05388244740031
C           -5.57225580254639       -7.30880855762792       -6.38653585003328
C           -5.27208976873307       -8.60374158128245       -7.14361538406884
C           -5.86697992512672       -9.85815982527621       -6.49139682525776
N           -7.30538870274807       -9.90788420395031       -6.63251489695937
C           -7.95305863783114      -10.36387879504752       -7.69902016943980
N           -9.26923866857967      -10.25822735286263       -7.55428132464331
C           -9.50839283142386       -9.68487250787399       -6.32321268883428
C           -8.24927218114231       -9.46179443649138       -5.73034727804913
C           -8.14421910017478       -8.90060340992402       -4.46181813709547
C           -9.32032139473036       -8.57073594156205       -3.82276660228115
C          -10.56889123601148       -8.79102988295485       -4.41344292029703
C          -10.68826638331343       -9.35021703123198       -5.66783825859002
C          -10.27296221296983      -10.62458013610141       -8.52918253377869
C          -10.72607199920088       -9.40919022335082       -9.33203964155367
H            0.45970321108127        0.25387519230094        0.46347808165285
H            1.36884040926594        1.71590568516561        0.09859525651929
H            2.22254834992792        0.23965047637389        0.54837657649268
H            0.56050113271871        0.59790882035172       -1.99098697207575
H            2.31301028728858        0.72368714338086       -1.91867845772761
H            1.72766897378734       -1.46654414230442       -2.74325663997556
H            2.50283845234647       -1.60726811843105       -1.17091237526224
H            0.66019926967730       -3.16706799080223       -1.33026245625472
H            0.35177090118076       -1.98477712077257       -0.07155664631409
H           -1.68337005310995       -2.43270841578754       -1.30104528272322
H           -1.20382575254811       -0.75985668337261       -1.51700559377681
H           -2.02678137687330       -1.68458101252334       -3.60594736777795
H           -0.34250733801883       -1.21740690825432       -3.75549987148569
H           -0.75573927785921       -3.31980765731392       -4.90527533809376
H            0.39816437727644       -3.53279188974171       -3.60092042272523
H           -1.10506363658050       -5.41536779399370       -3.65447244849437
H           -1.32554035057482       -4.52280990308703       -2.16080658956582
H           -3.47814641126945       -5.20906400138551       -2.98160850895011
H           -3.36601663833772       -3.46009616074015       -3.04283269556713
H           -4.48482982231241       -4.30943664784374       -5.02578647316826
H           -2.99687809137793       -3.48726410451933       -5.45235977538375
H           -3.30348466155323       -5.50708791627207       -6.79049074115021
H           -1.83313915178278       -5.57359661708116       -5.83877040932025
H           -2.88549079470302       -7.73837985274631       -5.80808797812006
H           -2.87911255578913       -7.05273150345681       -4.19526547299011
H           -4.98251044863680       -8.08051573986434       -4.45296581280779
H           -5.26422718064955       -6.34831265960776       -4.49914973480104
H           -6.64863353899933       -7.22909009621452       -6.21119351189561
H           -5.29050600834189       -6.47022690888126       -7.02302417810013
H           -5.65306668121173       -8.52576345544446       -8.16452904225935
H           -4.19344354825951       -8.74287161384678       -7.20669518566347
H           -5.44999544884892      -10.75051790616799       -6.96360333554447
H           -5.62736522402605       -9.88445956130493       -5.42841579597535
H           -7.47183576074060      -10.78212667600591       -8.56361770061198
H           -7.18979044835172       -8.72285284179481       -3.99585943610957
H           -9.27918979673011       -8.13123684851485       -2.83903758011062
H          -11.45908786167408       -8.51627948286228       -3.87072400718051
H          -11.65306121252403       -9.51972753617915       -6.11656853295459
H           -9.84734534270459      -11.38013763335263       -9.19240661684835
H          -11.11860342148324      -11.06387582471542       -7.99558450768545
H           -9.89532809670379       -8.98238761034313       -9.88858187168967
H          -11.49357125417662       -9.70979251094461      -10.03851355405910
H          -11.13859829598961       -8.64407794237499       -8.67942745075388
