37
 energy: -46.965337405029 gnorm: 0.000377850558 xtb: 6.7.1 (edcfbbe)
C            1.25954264257100        0.06346175288601        0.06774557468174
N            0.65193593176168        0.99236429108131       -0.89812052681721
C            0.99103155995186        0.57213360998467       -2.30112091431162
C            0.52453377796966       -0.81114060739600       -2.67370489160086
C           -0.72193146639850       -1.00339576315751       -3.26225786362569
C           -1.13671251120604       -2.27245571651770       -3.62636857386264
C           -0.30916247704456       -3.36224062482174       -3.41296002875184
C            0.94034392505086       -3.17797991870070       -2.84473522587414
C            1.35645393073403       -1.90994709338998       -2.47916490746161
C           -0.83977558466530        1.00893710372371       -0.72768991984544
C           -1.30029893126134        1.46353101511725        0.63254004715466
C           -1.57121543195483        2.80762655803229        0.87191392413014
C           -2.00423468325537        3.22468664665926        2.11823640609469
C           -2.17644576443150        2.30326005193134        3.13765903825142
C           -1.93084567361989        0.96074157581107        2.90205609041294
C           -1.49849748583342        0.54159761949235        1.65596666748379
C            1.20091633779164        2.34020540116320       -0.67402943606161
H            0.88164507290276       -0.94391602472568       -0.09732123971199
H            1.01685488686251        0.37543148105013        1.08205080083161
H            2.34150249441061        0.05879126358543       -0.05114306184186
H            0.54452686647615        1.30356768186634       -2.97828639245400
H            2.07746256557985        0.62736028836832       -2.40024227706027
H           -1.36609081816759       -0.15836618744415       -3.45812963596240
H           -2.10299402006912       -2.40718056816078       -4.08614620854447
H           -0.63089744405494       -4.34995490965897       -3.70226461319469
H            1.59732815673951       -4.02001236242604       -2.69429419440134
H            2.34338532772381       -1.77556136140902       -2.06059778584906
H           -1.24573473111699        1.67587102678114       -1.49127717318123
H           -1.19707885001795       -0.00470660850026       -0.92031342744446
H           -1.46318944000594        3.53247759645158        0.07798496703879
H           -2.21393348392407        4.26870099620615        2.28954313982419
H           -2.51491890519202        2.62862422829101        4.10836581270813
H           -2.08335579132433        0.23626387845750        3.68637663436247
H           -1.33437359888893       -0.51103082825479        1.47563450278480
H            0.95944025522672        2.67608577201810        0.33284451250144
H            2.28289613506988        2.32858885230157       -0.79144945439350
H            0.77996722561043        3.04307988330286       -1.39046036600820
