34
 energy: -55.219519509144 gnorm: 0.000445948341 xtb: 6.7.1 (edcfbbe)
C            1.47320450586353       -0.73143038514708        0.61069349492910
C            0.34991978543582       -1.40676027140855        0.76747249522638
C           -0.98363476376179       -0.92573943958020        0.27537657337630
O           -1.81219283373909       -1.96280872327772       -0.26592671733465
N           -1.46551297590995       -2.43505843047743       -1.48829296211487
C           -0.27104587629934       -2.36276868817241       -2.13017455250892
C           -0.44071848637263       -3.00596780843635       -3.32362955265706
N           -1.72056151544658       -3.44752912309463       -3.38256275099817
C           -2.33378095131933       -3.09216709035568       -2.25410140258943
C           -2.32144957000324       -4.22271370583665       -4.45458821347107
C           -2.64331255914380       -5.62143834679474       -3.98430778312869
C           -3.95499468202134       -5.99922754247279       -3.75169168126671
C           -4.28162335579899       -7.28410374168035       -3.32161484820061
C           -3.24399592357936       -8.16338410705251       -3.12852894194265
C           -1.91258460006346       -7.78241126171334       -3.35215679617654
C           -1.58744589879873       -6.51961824490395       -3.77667770839538
O           -1.09250913103808       -8.82993423881462       -3.08408178945098
C           -1.93755046821057       -9.90792146535109       -2.72124088243630
O           -3.27750827874270       -9.45451737253783       -2.72157562820785
H            1.50493888861079        0.21435320365283        0.09377674419909
H            2.40477366319423       -1.08610873318602        1.01369079881494
H            0.32396701235068       -2.34531461149546        1.30290417164107
H           -1.58714816831836       -0.57954298176738        1.12041111741735
H           -0.88060434153265       -0.10681792251894       -0.44565899859203
H            0.59445278439661       -1.89074276467267       -1.71121269130884
H            0.26522641203816       -3.16125631072361       -4.11424894302304
H           -3.34913668129413       -3.30539409617031       -1.98467940237430
H           -3.23247773563646       -3.71856992567993       -4.78456317552150
H           -1.61040145290122       -4.24876059610033       -5.28226041869047
H           -4.75398960804624       -5.29506575555767       -3.92547211812186
H           -5.30235164357031       -7.58047929044563       -3.15410997601464
H           -0.56144366601447       -6.24474933274162       -3.95710710250325
H           -1.82383170221866      -10.72667201703983       -3.44777485813062
H           -1.66800618209940      -10.26701887845053       -1.71796550042920
