25
 energy: -32.998307723005 gnorm: 0.000336820673 xtb: 6.7.1 (edcfbbe)
O           -0.08633310699737       -0.09294609501875        0.26799041119132
C            0.73359999474239        0.44486122803347        1.26492280167537
C            1.17578162309770       -0.63525177320380        2.19691197683916
C            1.99974356501722       -0.36811645010664        3.29342350224528
C            2.37681879380210       -1.39188876955361        4.12812512126730
N            1.97412572572497       -2.65343853515312        3.92127396230353
C            1.18869551271600       -2.93496431092705        2.87542015098552
C            0.77471040461461       -1.95744988010585        2.00134145601125
C            2.40005016696751       -3.72093456171167        4.83906990365263
C            3.91368096317058       -3.89889221878460        4.76673568666706
C            1.92015368668860       -3.42526629026768        6.25688134447218
H           -0.36915161135760        0.60070378167342       -0.33736418501429
H            1.63026951686578        0.92263630836092        0.83722107891058
H            0.20490313017361        1.21368877953398        1.85213776518830
H            2.34356586374993        0.63435794555236        3.49391311628770
H            3.01077990578404       -1.20829081070956        4.98105046367543
H            0.88861311769721       -3.96390785828713        2.74197438481220
H            0.14039158186521       -2.19660530094254        1.16285578144798
H            1.92009469428949       -4.63993509007794        4.49053538523676
H            4.44064846540659       -3.03323589452159        5.15854254773653
H            4.19825644044570       -4.76183009179300        5.36157447727621
H            4.23565960028675       -4.07224972628174        3.74260848583404
H            0.85499026878692       -3.20693721070949        6.26853458416107
H            2.09193443017726       -4.29937989647512        6.87804013803571
H            2.45537726628447       -2.59117727852293        6.70170965910203
