39
 energy: -52.369600007182 gnorm: 0.000405857366 xtb: 6.7.1 (edcfbbe)
C            0.58222819260099        0.33934094812327       -0.64137582779783
C           -0.23547493249469        0.15847374981903        0.37684327775049
C           -1.65752197962738       -0.31561407449516        0.23544522254540
N           -1.91167883846147       -1.43481998744088        1.11571215195129
C           -2.59940298901958       -1.40764377990369        2.25134855781888
N           -2.60035075200945       -2.59716546588924        2.84362536535330
C           -1.84510418677332       -3.45380015930711        2.07005541194378
C           -1.40654945525161       -2.70976708953651        0.95890868369547
C           -0.61658680645167       -3.27803784035148       -0.03168881372542
C           -0.27034045275352       -4.61122344269455        0.10577453107098
C            0.57789992071072       -5.29225335197480       -0.91575659130392
C           -0.71682164039127       -5.34408294992233        1.22072353264324
C           -1.49911196681107       -4.79350841006229        2.21019252541131
C           -3.11300685455371       -2.84593827477068        4.16675692785850
C           -2.07465053028444       -2.38364246695318        5.19849926591955
O           -1.78270378296163       -1.03777725668771        4.90588094372585
C           -0.68673794764753       -0.49078508576960        5.62497351523666
C           -0.95241157282612       -0.30211414202553        7.11256977128613
H            0.27877616190562        0.15350836831349       -1.65855226184840
H            1.58480107056964        0.70253747836631       -0.50215229788239
H            0.07742785549097        0.36128767032396        1.39154964910600
H           -2.34691914529135        0.48953312423841        0.50520186745600
H           -1.85669071622452       -0.62089212060588       -0.79495428909826
H           -3.09085336426172       -0.54089857834792        2.65052288496535
H           -0.27731842821100       -2.69960684670720       -0.87518296988468
H            0.85034032958881       -4.61555741227376       -1.71985928027847
H            1.48810109419134       -5.67303938401218       -0.45566816228623
H            0.04642779613353       -6.14308634261753       -1.33875874450837
H           -0.42781784797734       -6.38085328383064        1.29718114790327
H           -1.82433217318689       -5.37901139848730        3.05448067210633
H           -4.03025559326904       -2.26940214869980        4.30026030040048
H           -3.32645653729949       -3.90795952108330        4.28470374724282
H           -2.49584354929531       -2.50038043116404        6.20390299241768
H           -1.16173752222520       -2.99481433897880        5.12346584985896
H            0.20064091279441       -1.12251425760198        5.47390774873002
H           -0.51552242447187        0.47811469017327        5.15053313381810
H           -1.02332990393339       -1.25648596448308        7.62802232882502
H           -0.13521859277646        0.26242276658304        7.55073057732849
H           -1.87686284725667        0.24997701073862        7.26021665425194
