24
 energy: -27.581463933836 gnorm: 0.000584665776 xtb: 6.7.1 (edcfbbe)
C            1.05074654297049        0.09124574115367        0.00039295216299
C            0.19959385160873        0.37006464276036       -1.22731711113223
N            0.47600273096304       -0.85439381584458        1.02388076644931
C            1.02365531366346       -0.46998214876578        2.34277586902583
C           -0.99207574978828       -0.75640278502920        1.09602173158208
C            0.89214173183091       -2.27033725784415        0.78941919554634
C            0.61246870157511       -2.87533715790558       -0.58680529972565
O            1.53446327602094       -2.35011541893668       -1.50981603924473
H            1.23436839322738        1.04040708246480        0.50607198836345
H            2.00455383337511       -0.32639888341449       -0.32223174121241
H           -0.00458836235298       -0.52546469885449       -1.80149494279745
H           -0.73096803464583        0.87471557865877       -0.98651254916197
H            0.77438098735247        1.03434358709198       -1.86775189369489
H            0.66001657146802        0.51628858754940        2.62641241294158
H            0.71497651759814       -1.18303534140007        3.10556025498677
H            2.11136860776523       -0.44524475867671        2.30770468325986
H           -1.44912211683030       -1.09351287249132        0.17011758174963
H           -1.36307900577018       -1.37260302347206        1.91360673681246
H           -1.28564200273066        0.27551238350353        1.27814250610789
H            1.97286834196826       -2.32569626594154        0.94000593100220
H            0.39923104786475       -2.88576806723920        1.54385187509953
H            0.74311910065147       -3.95929886843772       -0.47926911918734
H           -0.42175694622056       -2.69541780602285       -0.91075524100812
H            1.56632666843539       -2.89670843290610       -2.30139054792530
