18
 energy: -28.499615035263 gnorm: 0.000619582981 xtb: 6.7.1 (edcfbbe)
N            1.47678376429107        0.57555506847776       -0.36836990018545
C            2.57135367988685        0.30407858890466       -0.19088784162077
S            4.19801930036857       -0.07316881822009        0.11486432109809
C            4.53758823667185        1.34905858565877        1.09229536350376
N            4.25512698845799        2.63183126185034        0.81220783317145
C            3.58104529365633        3.14010433307795       -0.35299844408652
C            4.72906132730555        3.39521698922005        1.83763030516112
C            5.32302458804766        2.56243517190823        2.73519802172858
N            5.19667630005937        1.29257715205387        2.26067011621552
C            5.69943538894514        0.09870950343889        2.88647383748672
H            3.85988470781149        2.56337270286426       -1.23468551350645
H            2.49675666287235        3.08716703031632       -0.23125090751359
H            3.86789828646473        4.17914505083928       -0.50252095778682
H            4.61249183190345        4.45976814253877        1.85794015741911
H            5.81812056819413        2.78459049793602        3.65867332640471
H            4.97149147200423       -0.70786959471499        2.79785971699958
H            6.63140374445564       -0.21889571541978        2.41541396041665
H            5.88796785860369        0.29663404926959        3.93900660509428
