72
 energy: -89.900391807100 gnorm: 0.000470675235 xtb: 6.7.1 (edcfbbe)
C            3.68339134369945        0.00763575543281        1.53431852444144
C            2.45324342191393       -0.90078602845030        1.62441047211513
C            2.22060153484756       -1.42189481100662        3.06162994241455
C            1.50474419953857       -0.56509016296506        4.13308903102785
C            0.03992662993633       -0.33670282551712        3.80097714278853
C           -0.55547209689074        0.92054013271742        3.84221422077302
C           -1.89601020758358        1.09315033199878        3.56219781996831
C           -2.69594900900916        0.00404107469321        3.23829142300585
C           -2.12989281571584       -1.26027855583283        3.21078215833725
C           -0.78432538859209       -1.41450325174336        3.49627731369416
O           -4.01596406336497        0.29041746746983        2.95703090352834
C           -4.89413166944403       -0.77846328506915        2.68139807837884
C           -6.31260016402519       -0.22002408286874        2.55044302855494
O           -6.56957994056140        0.41168895243704        1.31013700166795
C           -5.91335798027139        1.65297983481849        1.14062729592275
C           -5.97980029610036        2.05464039966472       -0.32993730385548
N           -7.28282808294783        2.60370087541106       -0.80575772656415
C           -7.55497143657445        3.96050745017289       -0.21892166191171
C           -6.51715834461566        5.00134290640382       -0.55205825439574
C           -5.41624893901989        5.19508570917186        0.27741425138883
C           -4.47205541090157        6.16068268254708       -0.02500978007547
C           -4.61925481564175        6.94750560648718       -1.15498680137170
C           -5.72167118729550        6.77546451628996       -1.97522826442757
C           -6.66649122408051        5.81006647688209       -1.67491962921051
C           -7.21970994418250        2.70812690953368       -2.27501491059084
C           -8.39039549098819        1.70072023685801       -0.44695922071069
C            1.53744084788020       -1.37547420222589        5.44458265216858
C            2.25779614539204        0.73985190223703        4.39974234852805
C            1.24103724337572       -0.17141015460756        1.04500013684725
C            2.73004040148764       -2.13579343778571        0.75344925575310
H            3.53087962719872        0.95192024939227        2.04514107985719
H            3.90502261665731        0.22607158783893        0.49148132991358
H            4.55313527982157       -0.48112019291112        1.96688997894053
H            1.66386756090824       -2.35608895636043        2.97489645262696
H            3.20015662209776       -1.68332569309477        3.46898147947171
H            0.02117273530942        1.79443182702379        4.09568665975571
H           -2.34378428953957        2.07460547616486        3.59829407571661
H           -2.71741888986660       -2.13363215937657        2.97359111212060
H           -0.38214310537671       -2.41530210726087        3.47282419523904
H           -4.61039574627887       -1.28432542085333        1.74815398011788
H           -4.88170652704794       -1.50730589274930        3.50100784521344
H           -7.02837000363289       -1.04196297967114        2.59656784368841
H           -6.49963265262876        0.47644671889952        3.37732106169617
H           -6.36031403863024        2.40609696206022        1.80620056670364
H           -4.85577888799626        1.56095421959679        1.41367287223875
H           -5.21309942732213        2.80270971922520       -0.53713108980533
H           -5.76737714257664        1.15537970745984       -0.91165665536074
H           -8.52886644353995        4.28250090814775       -0.59388825264614
H           -7.62744132893215        3.84602284865000        0.86337424990302
H           -5.30185245456491        4.60425545717126        1.17442839988537
H           -3.62567317802994        6.30275471456217        0.62816129949425
H           -3.88469681084407        7.70174269620744       -1.38793457451429
H           -5.85192476921310        7.39791407925767       -2.84629009965648
H           -7.53385152816607        5.70213262222638       -2.30971913022752
H           -7.07853365523152        1.72226623582756       -2.71389915009825
H           -8.14747771578124        3.12859233599925       -2.65869835024252
H           -6.39269400976423        3.35063488296655       -2.57168988758575
H           -8.18327515485826        0.69831984073415       -0.81538400433377
H           -8.50110012981389        1.63869454382229        0.63206645971099
H           -9.32084589570063        2.06008173116469       -0.88251913837950
H            2.56311210228698       -1.50553128728217        5.78117475776092
H            0.98473215117395       -0.85278813701664        6.22239426893191
H            1.09341561210976       -2.35875369557826        5.31540995421617
H            3.31310977861798        0.52537804069106        4.54664016401946
H            2.16208703601431        1.44128841919388        3.57688285705794
H            1.88491636149414        1.21482589843976        5.30506870656562
H            1.43341793999525        0.08574359054211        0.00483798066864
H            0.35503529699359       -0.80046969758203        1.08398136162766
H            1.03176075878005        0.74573321584886        1.58769328440448
H            2.97103632451098       -1.83899913354871       -0.26469694656645
H            3.56947473271095       -2.70262767181451        1.14897126445551
H            1.86060798707636       -2.78895392693732        0.71860228888209
