44
 energy: -67.441969584601 gnorm: 0.000572416018 xtb: 6.7.1 (edcfbbe)
N           -0.57773586981427        1.45649608927814       -0.87685324881165
C            0.23988745667179        0.98865731773799        0.07737473247417
O            0.49736959785688       -0.18921838179317        0.20898982454681
C            0.84512137555634        2.07238045402131        0.96949293999527
C            1.50808829348006        1.50222259485994        2.22998474912018
N            2.56554580924131        0.56683151787456        1.92187365501056
C            2.54153451068499       -0.76181650925383        2.09485598452445
C            1.43169055488408       -1.50485844639843        2.71373636052351
N            3.66171671753527       -1.30264772982661        1.59693443647876
C            4.43700924040686       -0.29136769480013        1.05681596640717
C            3.74192643313620        0.90762043858432        1.28422412472646
C            4.27162216571367        2.13256220201037        0.89899224010373
C            5.49124819760197        2.11647631835276        0.25311521826648
C            6.16304210116764        0.92184420625732       -0.01019979293174
C            5.65426460974243       -0.29846790402530        0.38671584233908
C            3.99420563725566       -2.70797097688627        1.57229263107334
C            4.13661197251233       -3.33429480106193        2.98670562977494
O            3.20159143446266       -3.95994549393943        3.43028215146061
C            5.40083671226691       -3.17174433792143        3.70902793246921
C            6.38013986541072       -2.23383765257714        3.37198850253894
C            7.54042344773944       -2.14917817263423        4.11673598000238
C            7.74762689635310       -2.99801094469088        5.19452644142466
C            6.78023190680949       -3.92912897033234        5.54125467300990
C            5.61344809055612       -4.01154421476979        4.80967019235339
H           -1.00387314305472        0.80280731941971       -1.51461135218989
H           -0.79679223097479        2.43140804737055       -0.98045694163765
H            1.57226952107015        2.62212959995277        0.36857089873340
H            0.06445943267100        2.76785583245459        1.27844853484611
H            1.93295221979409        2.32194124277169        2.81695301726609
H            0.75773256593871        0.98866240221200        2.83087815038040
H            1.15788608284644       -1.06999647236420        3.67354598855656
H            0.56831098130089       -1.44576529496763        2.04788349873266
H            1.68059212806539       -2.54934183520617        2.87041312084591
H            3.76380461397189        3.06147904207604        1.10035359163170
H            5.93473778585598        3.04727647004345       -0.06224021724945
H            7.10465800175364        0.95447425778033       -0.53431481785183
H            6.18688084998749       -1.21063402075402        0.16891943993413
H            3.19459333800644       -3.25714343636097        1.06410696559307
H            4.92140649942132       -2.83707037178640        1.01498338933271
H            6.23762867928049       -1.55128594056894        2.54955457296269
H            8.29104346497472       -1.41886775869063        3.85545632041083
H            8.66198870455110       -2.93030723242753        5.76351960992963
H            6.93720383125168       -4.58796489662472        6.38095096273027
H            4.84807951605969       -4.72983586238822        5.06197810016488
