20
 energy: -26.040368720693 gnorm: 0.000545126634 xtb: 6.7.1 (edcfbbe)
C            0.97246150765261        0.13176190422027       -0.39412343081688
C            0.23062232844064       -0.96175594626218       -0.42919937550079
N           -1.16275006635152       -0.97714904785845       -0.61452932916246
C           -1.98668945481102        0.08099439881917       -0.88137523899508
C           -3.25378266507153       -0.40615174258716       -0.97041014233637
N           -3.19426495283880       -1.74958203565349       -0.75249307488664
C           -1.92287212445428       -2.07431926346506       -0.54624442690520
C           -4.31567078736221       -2.66234065422543       -0.81151231983147
C           -4.60219704366069       -3.07414391909550       -2.25240179855087
H            0.57627261248354        1.12601298764743       -0.50268031391849
H            2.03447734250929        0.05622418868088       -0.24741329978115
H            0.65187813546368       -1.94906563821399       -0.30883182643197
H           -1.63500697373598        1.08491098228207       -0.99376806192824
H           -4.17420595430241        0.10621054372771       -1.16490283312245
H           -1.56179365015717       -3.06504343577780       -0.34619147777191
H           -4.08013901139177       -3.53984030588858       -0.20622336509649
H           -5.18598839619498       -2.16066055291114       -0.38298063005216
H           -3.74848431584392       -3.58782663093534       -2.68791539918403
H           -5.45237723569633       -3.74899524666786       -2.26901440914146
H           -4.84077929467753       -2.20791058583544       -2.86452924658592
