35
 energy: -44.606206799124 gnorm: 0.000173499074 xtb: 6.7.1 (edcfbbe)
C            1.26272291399899       -0.54264049284915        0.95548302832574
C            0.48470697637591       -1.60801175583035        0.90742526130324
C           -1.00393993955898       -1.53749812152557        1.09906787364248
N           -1.78277727436564       -2.21746387459326        0.01929340695922
C           -1.65564356995526       -3.69918991231864        0.02116972070021
C           -1.00724291015918       -4.37149097551348        1.05112857164012
C           -0.88999723316842       -5.75269146455892        1.05635520201011
C           -0.19203985989522       -6.46214578552406        2.17058431748837
C           -1.44041987307121       -6.46995661853496        0.00196907925029
C           -2.11839626339937       -5.83950188536257       -1.02265552658667
C           -2.24365224636044       -4.44264689607745       -1.00865101115410
O           -2.95497843323260       -3.81389040550951       -1.98931138153706
C           -2.72942950175883       -6.62863795145113       -2.14376843890396
C           -3.21052139962191       -1.88758486366250        0.21357993221884
C           -1.30908708584903       -1.66139396496182       -1.26752795530882
H            0.87323041322822        0.44836334429715        1.12094939573175
H            2.32970018831641       -0.62073467352072        0.84857590726661
H            0.90849173014817       -2.58883768810846        0.74812175684442
H           -1.29628313645710       -1.96336669975303        2.06213809086333
H           -1.30674139078443       -0.48764352970131        1.10198382242605
H           -0.57577396938760       -3.84281988842298        1.88236643390129
H           -0.88572158915713       -7.12524831417877        2.68482366125407
H            0.61691454145522       -7.07592059976074        1.77916924506675
H            0.21913684214012       -5.76358860822061        2.89355756273781
H           -1.34732355812388       -7.54474145439212       -0.01011584897387
H           -3.28583138078213       -4.47104948502669       -2.61620966192891
H           -2.51605686797324       -7.68471922910843       -2.01145412704817
H           -3.81427525306379       -6.51197030051827       -2.16622919585810
H           -2.32016013391992       -6.32720174606512       -3.10945400343663
H           -3.80241595563817       -2.33868380408607       -0.57942159458846
H           -3.54770541371548       -2.27361290330319        1.17420552981998
H           -3.35426023251542       -0.80902294878192        0.18779766134428
H           -1.34105224937648       -0.57451198775079       -1.22768440538529
H           -0.28398239876746       -1.97945371811264       -1.44574743401841
H           -1.93994448560466       -2.00603079721085       -2.08165487606172
