18
 energy: -25.642303982312 gnorm: 0.000582425995 xtb: 6.7.1 (edcfbbe)
C            0.58973770510684        0.10541791136639        0.07205630290694
N            0.62534332794955        1.44493023350141       -0.43904312027130
N           -0.18130112656409        1.79120134910445       -1.55426678345732
N           -0.17011466160611        3.22887225514392       -1.62354563232360
N            0.93781026138210        3.55263767118991       -0.76052083433794
C            1.27394198612685        2.50905673218585       -0.00831573180203
C            2.22228489241938        2.53588377655403        1.11514074515632
N           -1.30808530148443        3.83235334853011       -1.13731051621495
H           -0.40735287660421       -0.29972443628688       -0.09392904416554
H            0.80679129439660        0.10448206955374        1.13781085746903
H            1.31485428090391       -0.52456750065441       -0.44737765770920
H            0.21004682635269        1.40531510038165       -2.41734865259092
H            1.19862050843989        4.51934264751656       -0.65636459113627
H            2.78540281668630        3.46496645172027        1.11543754189597
H            1.68271358519303        2.46390388802596        2.06047723304815
H            2.91197173611652        1.69599093453592        1.05948665819405
H           -1.94873925201487        4.05013801145359       -1.88789350149849
H           -1.77644600279984        3.35834955617752       -0.36905327316270
