14
 energy: -21.106864503476 gnorm: 0.000745386883 xtb: 6.7.1 (edcfbbe)
C            1.16903935479525       -0.02948558326137       -0.20207894895822
O            0.93933667507371       -0.24182681536991       -1.60413233690391
C            0.89689192524580        0.84687857021780       -2.36931801449466
O            1.03595339571054        1.97298207939169       -2.02083790953644
C            0.60021247865513        0.44563705351947       -3.83328404385954
N            0.79047927956473       -1.01119286961039       -4.04626071704873
H            1.05672249057937       -1.00097798557906        0.27042174320146
H            0.44350192302861        0.68072010042004        0.19341457911574
H            2.17396421320749        0.36196768031919       -0.04500293254572
H           -0.43619238292888        0.72316183778881       -4.04267659945558
H            1.24556364376686        1.02850802278532       -4.49303022536284
H            0.34341948251713       -1.51365296829724       -3.26190653425860
H            0.38667517982630       -1.32144224970333       -4.93971490093038
H            1.79175234095795       -1.24935687262107       -4.03218315896258
