24
 energy: -28.128767095050 gnorm: 0.000325940260 xtb: 6.7.1 (edcfbbe)
C            1.30250610151779       -0.31422835398744        0.17731016632842
C            0.30635891955632       -0.17570536852095        1.32463608137829
N            0.67716935047182        0.88279355589085        2.23825111553198
C            0.43850506535359        2.17634254675492        2.13374240965674
C           -0.36511784166403        2.82060885702195        1.07460112454721
N            1.00818226135277        2.86556066884091        3.10573931095540
C            0.89351913162258        4.27891621537751        3.34361056395460
C            1.72068445291472        1.98971254407355        4.02553352347988
C            1.52417702345861        0.60401192600672        3.39299135632249
H            1.36117866016903        0.60349262792370       -0.40192956696388
H            0.98382268519614       -1.11595591687983       -0.48155413959540
H            2.29408875109883       -0.55604262856169        0.54968008329783
H           -0.69513558527178        0.01830175448530        0.93545449516936
H            0.26915203997496       -1.10249329048234        1.90024701217844
H            0.27420778103559        3.45175976430956        0.45683963403687
H           -0.84683582781757        2.09051918706615        0.43274074128049
H           -1.12626908969082        3.46055134620440        1.51912130103514
H            0.96602132878388        4.83312910728278        2.40900382962687
H           -0.05637250617641        4.52123236430636        3.82643465175721
H            1.70356890465609        4.59290362380058        3.99832672593329
H            1.28639555753777        2.06145555234170        5.02644960267794
H            2.77209521971161        2.28270551981930        4.08350144898364
H            2.46568004871994        0.15412603074626        3.06790888489968
H            1.01991756748858       -0.09791763382047        4.06182964352766
