17
 energy: -17.172889987394 gnorm: 0.000558224422 xtb: 6.7.1 (edcfbbe)
N            0.96071396965835       -0.00967346032628       -0.15057209700886
C            0.48199176734682       -1.39205511833009        0.15809281030564
C            0.97325118734674       -1.84519788716107        1.53486481844001
C            0.46448827353828       -0.91264652163537        2.63274130876529
C            0.48740422268325       -3.27291542627796        1.77546980120673
H            0.65727328484349        0.61295077461089        0.61217553789130
H            0.58582617974510        0.33342623771030       -1.04246643207764
H            1.98785295314140        0.00682306717832       -0.19237754736985
H           -0.60930612552830       -1.38870192520602        0.13832655469458
H            0.84232815751853       -2.06868126872967       -0.61767684315092
H            2.06833612564262       -1.84641274882202        1.54020795575727
H           -0.61835157157740       -0.81994719168816        2.59079987998103
H            0.71859150391707       -1.32655691473669        3.60397572145493
H            0.91392814390417        0.07914716796053        2.58876452719443
H            0.83989995014663       -3.94227319550504        0.99586936527582
H            0.86103874166612       -3.63787839642274        2.72673994713225
H           -0.59815676399286       -3.31009719261891        1.80081469150799
