33
 energy: -38.667348030568 gnorm: 0.000518376196 xtb: 6.7.1 (edcfbbe)
C            1.35423284431524        0.09893578388429       -0.02321489077100
C            0.37985316002959        0.12786441690206        1.14683220619078
C            0.58790645639884        1.24364695638546        2.17466081045892
C           -0.09431115801649        2.56896837834737        1.81616050037911
C           -1.60100854500722        2.56368670709395        2.09472425549912
C           -1.97737596168922        2.62694872491233        3.57661392825911
C           -1.59274356299718        3.92531438311691        4.28899203123966
C           -2.28887873145693        5.15704378041755        3.72211377658586
S            1.02359146487798        1.30327755673938       -1.37299237954671
C            2.02434914605830        2.67782332484448       -1.06699037729033
N            2.72379069976823        2.83202837298799        0.04363141129104
N            2.07304462151018        3.58487956414974       -2.03198129575118
H            1.25078619432988       -0.85055921913477       -0.55134638375012
H            2.39468007842551        0.20257262880553        0.28192074178046
H           -0.64069366917487        0.16833383061938        0.76456380316906
H            0.49538420868358       -0.83449599722247        1.65071637846391
H            0.17807632142414        0.90439645263186        3.12584492973876
H            1.66067694850446        1.38862534337603        2.34725898921849
H            0.36508908671389        3.37347153314364        2.39157131071768
H            0.05189054374725        2.79665008834376        0.75774468762734
H           -2.05003905417391        3.41485465847688        1.58220289689079
H           -2.04371447174440        1.66218272089423        1.66583658192810
H           -3.05949134553767        2.50363789059203        3.64997035433545
H           -1.52256765104817        1.78881790151258        4.10910076897432
H           -1.86931549912900        3.82146179926780        5.33983106243391
H           -0.51045717415129        4.06977308140624        4.25711194417632
H           -3.36651081161842        5.01299748918129        3.71303921587716
H           -2.06714212151558        6.02695324669241        4.33508785874272
H           -1.96076181191414        5.36976361972006        2.70719610814168
H            3.29974476222148        3.64865399997598        0.18588570295124
H            2.58518935993437        2.21544047323540        0.83229096356568
H            1.56559321545479        3.44086264390754       -2.89122674239739
H            2.61258245677759        4.43288786479468       -1.94283114913497
