19
 energy: -32.607322791108 gnorm: 0.000771054942 xtb: 6.7.1 (edcfbbe)
N            1.13748464351429       -0.03544233923466        0.31514373873306
N            2.24270550808638       -0.12817928502989        0.13333727716347
N            3.41181244845201       -0.32052822635413        0.08235995631517
C            4.26839265704755       -0.04900990377340       -1.02414174372732
C            3.92130215935111       -0.92435476257656       -2.25266511668715
N            2.50806770440397       -0.87942048715904       -2.53206199894497
C            1.74833550752260        0.15613993096897       -2.90211179412535
N            0.47499889542463       -0.25845310366014       -2.86833515526716
C            0.52162210774702       -1.56581639935472       -2.47551130082773
N            1.75033700816977       -1.92939229497527       -2.27234356127149
N           -0.62347141195221        0.42678433479782       -3.25327729855619
H            4.22380579506740        1.01478579793485       -1.29274350889786
H            5.28466401760931       -0.28285723876674       -0.70393543302231
H            4.49384244790255       -0.58450242197531       -3.11739024705090
H            4.14992981970309       -1.97170123769737       -2.04486825656128
H            2.08966620054365        1.13274490614474       -3.18226969021086
H           -0.32934152289736       -2.20341706831365       -2.34827798896842
H           -0.55367963955199        1.43346021737851       -3.17134469372101
H           -1.49089434614311        0.04565958164572       -2.89567318437089
