23
 energy: -30.793610186971 gnorm: 0.000849794759 xtb: 6.7.1 (edcfbbe)
C            0.64346816359507       -0.09786556489352       -0.46656844939569
N            0.58291129642455       -1.19679653843660        0.47983675784645
C           -0.11332431304680       -1.13029838262107        1.61438588944258
N           -0.71477115243146       -2.16775010129685        2.26775507385431
C           -0.84083665094352       -3.55024339769891        1.87613621042956
C           -1.30969468963303       -1.62010615492676        3.37178851776759
N           -1.12590148630189       -0.35008151969316        3.42062598982048
N           -0.38291913197220       -0.02770166050404        2.34880437079146
C            0.04400698947072        1.34027674100426        2.20730850450515
C            1.39982206192628       -2.34204043251504        0.12013629916568
H           -0.18853240812515        0.58376936530514       -0.32385627500417
H            0.56785950581765       -0.51631790190534       -1.47123789819761
H            1.58753484976712        0.44575850398117       -0.39493090340190
H           -0.93657555451399       -3.63075573374159        0.79565887944608
H            0.01119222422385       -4.14063628384344        2.21605407695443
H           -1.74063957449335       -3.95360586037191        2.33749579672816
H           -1.86052395490718       -2.18053459781005        4.09814289458954
H           -0.58925830130146        1.89014501489729        1.51088274328336
H           -0.05694410917851        1.79677349188850        3.19062194623526
H            1.08268162430013        1.38925630461031        1.89015316217396
H            0.94618925909999       -2.91805319247070       -0.68771284058356
H            2.36568557364571       -1.97370054758434       -0.22743154479286
H            1.57624977857759       -2.98290155137336        0.97750079834170
