47
 energy: -74.331187451684 gnorm: 0.000954224948 xtb: 6.7.1 (edcfbbe)
C           -1.29100921888251       -0.67619205150643       -0.26481944654838
C           -0.79970975793272       -0.55452913272876       -1.70482578152039
C            0.30818639056632       -1.51536786878966       -2.15617628753502
C            0.16158048888303       -2.96673645849235       -1.70517000142736
O           -0.81888374939472       -3.55908830822535       -1.38583047698131
O            1.39485682559157       -3.54019822767790       -1.69277959609658
C            2.36370344299729       -2.60896709503385       -2.14845124555449
C            1.77775927889714       -1.23846765811558       -1.79231463581988
C            1.94461432515250       -0.92210192194456       -0.29110938576452
C            3.33689900953236       -1.10191120334727        0.19524944605434
C            4.42689866581010       -0.28822791857317        0.06835256485814
N            5.48477287496835       -0.90665700303267        0.66786814360760
C            5.05100749790935       -2.06079159768083        1.17135928231253
N            3.75950716345257       -2.21021124975028        0.88921198907231
C            2.94473807360726       -3.32764874463111        1.29402341284645
C            6.77083523820672       -0.33608720283004        0.94368723776782
C            6.92888364059144       -0.21376664202217        2.48740718566273
O            6.10909861911585       -0.75685661094879        3.19077072335176
C            8.07730507355159        0.53810597159494        2.98339300003885
C            9.06423647091033        1.08679908318025        2.15515397297715
C           10.12664846435184        1.77355598120553        2.70232824194884
C           10.20394514628824        1.91528426606334        4.08224891485446
C            9.24238470307776        1.37992774275770        4.92848364902571
C            8.18571828292962        0.69312657885410        4.37331989447888
F           11.23103713080248        2.58184842443492        4.60377005550037
H           -1.53320944611220       -1.70850705019563       -0.03044239787187
H           -2.20101896225332       -0.09115653530216       -0.15951424950623
H           -0.57663233455366       -0.29801182398116        0.46071174462647
H           -1.65668573643649       -0.74490166656114       -2.35247412106061
H           -0.46478464780953        0.46683838906789       -1.89925034331119
H            0.26105781057350       -1.55555228498816       -3.25333195597186
H            2.48114452387586       -2.71025197649126       -3.23365970533883
H            3.31720165686906       -2.84592503551564       -1.67538268589411
H            2.22144924696024       -0.44582668763643       -2.39458285522822
H            1.64265035273174        0.11211978767914       -0.12389335225207
H            1.28284203497453       -1.57281695400488        0.27940506900074
H            4.51173341146762        0.67085420161111       -0.39982819422323
H            5.65078992082967       -2.76824751219685        1.70878164587664
H            3.58266273960338       -4.10798239958197        1.70221507350866
H            2.23846793273126       -3.01680136887310        2.06589737317115
H            2.38685727349897       -3.73140142035378        0.44788657813978
H            7.56839403185773       -0.98388559066157        0.56932653234716
H            6.83887566108532        0.64209240663811        0.46861003613635
H            9.01974862713892        0.97597835868995        1.08312913159820
H           10.89819156137763        2.20186136154264        2.08277833623595
H            9.33645039768634        1.50651898349163        5.99490687721083
H            7.41981986305014        0.26234366483040        5.00053060572979
