49
 energy: -74.395182428602 gnorm: 0.000782344705 xtb: 6.7.1 (edcfbbe)
C            0.39115052231477       -0.14034057314434        0.02539644671742
C            0.02617381071026       -1.41504060731725        0.76660494696924
O            1.08945509588299       -1.81996038212841        1.65227410155476
C            2.04544347502862       -2.58386448600568        1.14217718211107
O            2.11216842961061       -2.99701678511696        0.02477311911176
C            3.11991788249892       -2.90050428486337        2.20594736704441
N            2.81483802711771       -2.32030780115623        3.48329649756508
C            3.00496991994875       -1.04135098523552        3.83663277429848
C            3.73360045476226       -0.04877111662938        3.01247424756402
C            5.25525041620907       -0.20165056533608        3.16296225405666
N            2.47260967867902       -0.82087315647190        5.04554468676416
C            1.88339482574238       -1.99372081608331        5.48588081352048
C            2.10061176089730       -2.95262054908206        4.48261938015200
C            1.62463821843913       -4.25117905964339        4.60664492570529
C            0.92913768124589       -4.55589182411395        5.75901552946692
C            0.70669660437922       -3.60232258752314        6.75459608029771
C            1.17423175617497       -2.30887148394343        6.63864752263461
C            2.43630504491284        0.44255632390909        5.74098258818013
C            3.83272219392209        1.07865028234988        5.96435252184193
O            4.07666514783583        2.12371594077863        5.41112242414330
C            4.78242479338904        0.38233813515574        6.83875490454620
C            4.49317271850574       -0.80256905032230        7.52163648173056
C            5.44866035970749       -1.38332920502412        8.33261458823255
C            6.69829937459943       -0.79768610771724        8.47744145548818
C            6.99685257289408        0.37753647789443        7.80455205124335
C            6.04795483591739        0.96376601160507        6.99252860338495
H            0.62105734361632        0.65955289039220        0.72545047619981
H           -0.44820303415826        0.16593762965062       -0.59096351048503
H            1.24910960989548       -0.31050124125098       -0.62058748560987
H           -0.83617912678754       -1.26645893421388        1.41805818503314
H           -0.16995668557929       -2.22697826184911        0.06184989210491
H            3.18277085519444       -3.98637450329001        2.30362713323774
H            4.08079099841726       -2.54445447762437        1.82828934475049
H            3.45755523457810       -0.18190998855623        1.96475441786380
H            3.45322365944998        0.96150485860316        3.31099146335269
H            5.59356935194918       -1.18996252917580        2.86243077416108
H            5.74866896500605        0.53560752599068        2.53746442111140
H            5.56135278536141       -0.03324711975963        4.19178269866732
H            1.78011420541541       -4.99200913878386        3.83984002206438
H            0.54150036111201       -5.55287813634537        5.89348386072593
H            0.15101726247388       -3.88382667824214        7.63461456183753
H            0.98163206554184       -1.58393190336155        7.41338290064593
H            1.85161404861554        1.16506636952290        5.16081174876664
H            1.94877486334728        0.29914040524020        6.70560568151893
H            3.52747622666202       -1.27550730806412        7.43973625188304
H            5.21667504554329       -2.29448620048041        8.86256894716726
H            7.43492412721158       -1.25632759991767        9.11861174133811
H            7.96686185644942        0.83559516970097        7.91764016716052
H            6.25773437935649        1.88167742697807        6.46415281220177
