40
 energy: -58.215706004234 gnorm: 0.000554721181 xtb: 6.7.1 (edcfbbe)
N            1.01231636197474       -0.31238291480926       -1.08642269521265
C            2.03309044751108       -0.18725007947783       -0.59089885322426
C            3.36973044661113        0.00238595940871       -0.08037038469049
C            4.38313028722371       -0.16513601343654       -1.22905743104722
N            4.02710803303800        0.68416071008761       -2.34181457785785
C            3.17465732620980        0.37214045284960       -3.31536876274861
N            2.98193735139055        1.43115104883437       -4.09421980668484
C            3.74145235640164        2.46812159844654       -3.61210644836803
C            4.39225331958569        1.98729826353727       -2.50728756559922
C            3.80321484973140        3.80636831068906       -4.19928663869498
C            2.64390084186470        4.55355697303583       -4.40094888020521
C            2.72709578030120        5.82090988313751       -4.94878841459471
C            3.95878787211949        6.34921361149737       -5.29987472608952
C            5.11440069293442        5.61373075092862       -5.09020702468041
C            5.04166347638696        4.34856483668392       -4.53704645547254
C            2.22274924744627        1.40721085114533       -5.33177547036241
C            3.04402404065381        0.74085955633262       -6.41322494071265
C            4.06665021146905        1.44836854697831       -7.03335544689187
C            4.83941009172752        0.84055500963118       -8.00683968262071
C            4.59586631343638       -0.47523084575875       -8.36519039107292
C            3.57793571173564       -1.18305755474653       -7.74889788180990
C            2.80648974302477       -0.57901955846424       -6.77060795124082
H            3.43747036375773        1.00184881347142        0.35757102700354
H            3.57063049679236       -0.73299029757949        0.70096934785556
H            5.38339777362973        0.10297164836455       -0.88351762740903
H            4.38909398464727       -1.20283697884233       -1.57120735940287
H            2.70991721075018       -0.58447465777524       -3.45176230122366
H            5.06967187370561        2.48797988877400       -1.84645278546452
H            1.68451345083016        4.15938054890910       -4.09818926860180
H            1.82768232352861        6.39739094517734       -5.09772264626663
H            4.01857516423396        7.33626163658834       -5.73040424576971
H            6.07479075504394        6.02619174905764       -5.35662825081318
H            5.93835906109589        3.76799820539644       -4.38011604976986
H            1.29443079099624        0.85936913969187       -5.15854210988218
H            1.99306229663645        2.43506365437226       -5.61418743144546
H            4.25008774666501        2.47850073553073       -6.76234349371585
H            5.62748168731859        1.39690893658018       -8.48987036302351
H            5.19516348370598       -0.94620863671764       -9.12841989441540
H            3.38050944865970       -2.20541370899266       -8.03107479790408
H            2.00594728522324       -1.13121101853717       -6.29982131987409
