37
 energy: -54.616729122590 gnorm: 0.000995856758 xtb: 6.7.1 (edcfbbe)
C            0.13602399555355        0.56016116826318       -0.09409892005183
C           -0.65932083537790        0.24507062879842       -1.35710540687633
N            0.21687789418235        0.16814201028062       -2.50470722146020
C            0.77720477156563       -0.93460849547087       -2.98620917930672
N            1.58378958583409       -0.66065384331688       -4.01134085190786
C            1.58847319797190        0.71019771905197       -4.18700114909801
C            0.70528245900668        1.23850729104545       -3.22574904686820
C            0.46263213609217        2.60430515897156       -3.14272701125966
C            1.12655438190536        3.41405824613358       -4.04070285424246
C            2.00517514726650        2.88987804861788       -4.99247560584088
C            2.25169057926901        1.53536165960759       -5.08606135203414
C            2.49291363509437       -1.61255380665940       -4.57715451235318
C            3.37528668988421       -2.17684015907006       -3.42748840747089
O            3.05565844752961       -1.92325306278808       -2.28797744743931
C            4.52498043696488       -2.99099474451887       -3.80710059806536
C            4.78998310431910       -3.38624035024571       -5.12348306143065
C            5.89387646060274       -4.16865771145239       -5.39825103099715
C            6.74854767822221       -4.56250244730212       -4.37687590444981
C            6.49355018663110       -4.17898058389923       -3.06866453040425
C            5.38974069348392       -3.40191850837189       -2.78349733216767
H            0.88601110243604       -0.20653719590893        0.08421001847628
H           -0.53522039781033        0.59421691535448        0.75855008374880
H            0.63533038546986        1.52180663515113       -0.18052968901441
H           -1.17086153440366       -0.71356438822153       -1.25202277854418
H           -1.40349177304029        1.02168041480071       -1.54619993542829
H            0.57187576878640       -1.92276349297906       -2.62089317926268
H           -0.21354285309570        3.01604085949809       -2.41181654757684
H            0.96557254194950        4.47975661356924       -4.00979186249338
H            2.50185297826188        3.56368188959509       -5.67205614009772
H            2.92942118842035        1.14520094945830       -5.82778270687484
H            1.94732174908987       -2.44528808163730       -5.03082010659796
H            3.10584594864098       -1.12293783672073       -5.33254639401722
H            4.13582463811163       -3.10161761672733       -5.93280841052935
H            6.09245611389125       -4.47480323401900       -6.41382705846466
H            7.60951255204027       -5.17207462655325       -4.60331944766988
H            7.15368394989603       -4.48919397809342       -2.27453101347953
H            5.17293699534778       -3.09465204425098       -1.77174340844902
