75
 energy: -79.473146207321 gnorm: 0.000286881081 xtb: 6.7.1 (edcfbbe)
C            2.18626153753031        0.22622988589481        0.83860779386358
N            1.20053803648903        0.33660136996814        1.92935447866108
C            1.49097578839590       -0.74522172963113        2.91788377979422
C            0.65853117616500       -0.65781589121173        4.19172935686509
C            0.85987983789455        0.69622651294557        4.86366907633289
C            0.54454249178245        1.81069098278495        3.87180780444194
C            1.37716011950484        1.65424835038280        2.60433336974420
C           -0.18104153556597        0.15736461415467        1.38374547001067
C           -0.58997517015234        1.08469505992484        0.23167541628763
C           -0.51480027128451        0.43854550202066       -1.15697335478289
C           -1.55037006546305       -0.66309310073589       -1.39608420873537
C           -3.00615014390994       -0.19200873669602       -1.42716524065017
C           -3.32722740823619        0.85667208123896       -2.49510702467452
C           -2.93676441330391        0.46837895640960       -3.92288993713754
C           -3.55082789719670       -0.83725013981588       -4.43075352185542
C           -5.07785357240784       -0.84337741141368       -4.51966906249100
C           -5.67617725062328        0.20541574746609       -5.45990377598752
C           -5.15335974629616        0.16122298862332       -6.89753297853435
C           -5.31830951472985       -1.18372498862392       -7.60750554191278
C           -6.76222465729758       -1.66549663927662       -7.75668462943621
C           -7.67110412490937       -0.74454972484479       -8.57307876306390
C           -7.19386411592255       -0.45895366534248       -9.99873235166158
C           -6.96163729117164       -1.69718479229929      -10.86741190148916
C           -8.18481884294560       -2.59580034690885      -11.05507648296999
C           -9.33619278023323       -1.90319654723044      -11.77411780933575
H            2.04902085385800        1.02909800817679        0.11877036686980
H            2.07114955069996       -0.73036840562346        0.33205373026494
H            3.19811280369845        0.28883348142489        1.23612109044711
H            2.54663899780596       -0.66350440083607        3.18756383024899
H            1.33759647734196       -1.70840254306780        2.42741606951084
H            0.98642331452173       -1.45752206087720        4.85626081121729
H           -0.39862268919238       -0.82651224299716        3.98612115667916
H            0.21581304836844        0.77991878370713        5.73721716149474
H            1.89296505675810        0.78779545684132        5.20373220970866
H           -0.52112820434785        1.82302703180798        3.64155339211074
H            0.78777419438024        2.77942403837577        4.30894642739994
H            1.13285922483726        2.44600428840185        1.89553470749835
H            2.43451873821349        1.74489223659444        2.86384951306002
H           -0.25736158572055       -0.87759843154080        1.04479904858295
H           -0.87236633636528        0.28590681627411        2.21389276706450
H           -1.62185180025577        1.39366274018776        0.39912611395781
H            0.00471140768203        1.99852603452927        0.23253641464901
H           -0.66582732834954        1.22192098758619       -1.89896447557433
H            0.47857516389745        0.02106469260613       -1.33059196234859
H           -1.31651039947258       -1.13564401062075       -2.35003609888288
H           -1.45933671169075       -1.43797684218187       -0.62957119930767
H           -3.63230388950771       -1.06907396029941       -1.59521431128643
H           -3.28766895540090        0.21175163630769       -0.45103036975370
H           -4.40030403451900        1.04974613041371       -2.45958430676155
H           -2.82977135253252        1.79791027225496       -2.24681381158529
H           -3.23480599773217        1.28233310073229       -4.58532872796858
H           -1.84909905173555        0.38614442001044       -3.99296606458652
H           -3.13735126632160       -1.04031513907118       -5.41990532450332
H           -3.24260841979167       -1.66177976591165       -3.78354154899667
H           -5.39078284289009       -1.83571337458080       -4.84984898218918
H           -5.50127218233274       -0.69227510516375       -3.52379615601940
H           -6.75936540836975        0.07005841020234       -5.46872329120384
H           -5.48539461586526        1.20363052382539       -5.05826424532662
H           -5.67124575212166        0.93344784015298       -7.46934479825508
H           -4.09218745418959        0.42182929015492       -6.90297419577167
H           -4.86592628707938       -1.10091495548651       -8.59755388840148
H           -4.75780485659925       -1.94920587621307       -7.06597800726847
H           -6.74268335492694       -2.65202781381223       -8.22417242215609
H           -7.20514648606836       -1.79188698841358       -6.76613256379902
H           -8.66375805461315       -1.19776635536126       -8.61196927858152
H           -7.77908236810233        0.21012835241031       -8.05296415558343
H           -7.93366585381044        0.18237410452499      -10.48176659396792
H           -6.26100372490157        0.10816198301351       -9.95945778625224
H           -6.62472349440598       -1.35992916526169      -11.85133993458210
H           -6.15416708245093       -2.29360024357610      -10.43736138296350
H           -7.87762149269616       -3.46625114346976      -11.64064503417097
H           -8.52893138243789       -2.96219194557571      -10.08630613946227
H           -9.00111092837432       -1.49773434778261      -12.72649475277356
H          -10.13928387396934       -2.61083048223694      -11.96747263190078
H           -9.73988349904677       -1.09008339835603      -11.17635032983400
