26
 energy: -34.767233613253 gnorm: 0.000837996244 xtb: 6.7.1 (edcfbbe)
N            1.09430651269404       -0.42253676702408       -0.32246744262347
C            2.19899991024076       -0.22775961162517       -0.11005424001034
C            3.61036625416706       -0.02207233486527        0.11962381963244
C            4.34192606726280       -1.35906483327018        0.31725475727191
C            4.01063043118804       -2.40377161209868       -0.75017845788560
C            4.47812233167442       -2.03645296699670       -2.16291432426652
N            5.92122980366666       -2.02331871396984       -2.25955047186338
C            6.71627064840665       -3.12817800164778       -2.25445215033145
C            8.00747520715057       -2.69993864662897       -2.32908699244294
N            7.98189508690864       -1.34074591282285       -2.37590136351400
C            6.70800145494754       -0.95387613814042       -2.32894827942281
C            9.12604226943698       -0.47274378920690       -2.47185685470639
H            4.01264929719098        0.53940938747525       -0.72856225742837
H            3.72650700738706        0.59649800460915        1.01276678162842
H            5.41882684340621       -1.17345112180112        0.35540349990631
H            4.04750632192060       -1.77273524271969        1.28288039084390
H            4.45467650961332       -3.35822420476687       -0.46193355117180
H            2.92895173165493       -2.53995756306147       -0.78869583796050
H            4.09613246958370       -2.77620050987976       -2.87018742138114
H            4.09794453504244       -1.05604882454087       -2.45191578045151
H            6.32179319223144       -4.12272274400628       -2.20892455254428
H            8.91826225204373       -3.26301681925051       -2.35310764071003
H            6.37443635813868        0.06545080186056       -2.35927495454031
H            9.05928201538687        0.14560980988928       -3.36756283100363
H            9.18419602623340        0.18094662092897       -1.60092627175939
H           10.03192946242270       -1.07201826644181       -2.52377757326632
