102
 energy: -155.495462196960 gnorm: 0.000364565734 xtb: 6.7.1 (edcfbbe)
C            2.56367693220437        0.80278783115582        2.07143036346887
C            1.74721311128358        1.65401963532811        3.03664929874801
C            1.62615511977237        3.11659796295256        2.60421302464431
C            0.88105568529620        3.33968977727085        1.28624091975905
C           -0.61203169563471        3.00695908882970        1.34254801357721
C           -1.44590782184303        4.05850199950826        2.08081707553186
C           -1.77921305098309        5.28303189030043        1.22572290146639
C           -2.86559572983443        5.00920665353725        0.17833336112126
N           -4.16050704441791        4.77953474904612        0.77534882697783
C           -4.69190217460786        3.53251334052095        1.00617298786767
C           -4.21354869667448        2.26039530820980        0.73404431825010
C           -5.00935423459791        1.18499915402044        1.09350555785141
Cl          -4.44765705938400       -0.40798718903660        0.78279598215003
C           -6.26095605326130        1.37767783333174        1.70127878743878
C           -6.73995697392382        2.64927632939292        1.97468474808624
C           -5.93919377989585        3.72411296762478        1.62379655729784
N           -6.11469747066870        5.08460754934311        1.76962980916865
C           -5.03080618029726        5.72722060217308        1.24392732732023
C           -4.75195988822163        7.09251478311645        1.12677093150976
C           -5.44614038966472        8.22059094354676        1.52940928991980
C           -4.91904978853569        9.47669903561258        1.24910658535201
C           -5.36089338729695       10.76724359248576        1.51956252412278
N           -6.54280649327385       11.20518568219028        2.05939686900786
C           -7.65274909906831       10.42814278277566        2.53640239117247
C           -7.49513554596788       10.08523582033974        4.02484836475714
C           -8.49006494807120        9.02115953652184        4.43446147450813
O           -8.73394914280171        8.04665647149658        3.76952650089233
O           -9.04652048061546        9.27761650740375        5.60397631530958
C           -6.51280694306815       12.58102372110952        2.15037011669175
C           -5.28319917768055       13.00265384155393        1.62141634641307
N           -4.60151522534791       11.87435202422232        1.23052640848621
C           -3.27092783628883       11.93584213267234        0.67180800822135
C           -2.19218989715870       12.04486919885672        1.75656852702541
C           -2.02866290497617       10.77587723677486        2.59531446802818
C           -1.29421894437597        9.64895285406510        1.86225631166121
C            0.22768194084766        9.81450174880815        1.87334697951895
C            0.88269544259936        9.43021825803999        3.20177189637969
C            0.89655568710074        7.92836595775418        3.49380716445893
C            1.78790299383956        7.13935818979607        2.54220657255577
C           -4.95023145027907       14.34563597085795        1.56382821189193
C           -5.87744261795071       15.25819814132383        2.04683971803559
C           -7.10510990932718       14.83529407949958        2.57780375543301
C           -7.43632039746853       13.48846428254005        2.63763091354670
Cl          -8.22382561011203       15.99652564719701        3.17122625142401
Cl          -5.50475457395125       16.93471706600740        1.99420387937409
C           -7.29774952496745        5.67597231828176        2.34177806629099
C           -8.25179161613367        6.22075844864918        1.27778787976493
C           -9.07981234737888        5.12110520144078        0.64905945361659
O           -9.31618039720987        4.06142322350872        1.15973438229150
O           -9.53735230329480        5.48163224778802       -0.54800829054909
Cl          -7.22201644268984        0.01629074407803        2.11423891242121
H            2.05730731213945        0.69134697007913        1.11598026086604
H            2.71698308633437       -0.19027110935912        2.48645952200946
H            3.53787877414010        1.25372330032468        1.89606473698824
H            0.75528505052546        1.21487562591257        3.15895715923112
H            2.23048200652114        1.63404291477776        4.01607206853020
H            1.12940612946566        3.67301927757413        3.40297702436217
H            2.63341406980379        3.52661477158241        2.49813991285869
H            1.00551848840714        4.38372115506453        0.98998233192619
H            1.34829487625884        2.73024194696376        0.51250195233290
H           -0.97755771045741        2.89989086329056        0.31897718867319
H           -0.74350020106630        2.04270371947802        1.83313679577137
H           -2.37463072410408        3.60786389278732        2.43752956865320
H           -0.89271314701567        4.39126429093298        2.95944846736548
H           -2.11513865558210        6.09516269888395        1.87376678915733
H           -0.88187111475983        5.61962080872251        0.70606722265552
H           -2.93699294070640        5.84566314459888       -0.52155916404802
H           -2.61364425214801        4.11979000307878       -0.39890715128158
H           -3.25857498522533        2.08345983064100        0.27080871864987
H           -7.71775124377458        2.76991063305912        2.40868988444145
H           -3.82187769988989        7.29756594530927        0.61705274364215
H           -6.36658547946970        8.12174827228482        2.07457671851532
H           -3.96696083344888        9.44728583049745        0.74178117641052
H           -8.56069122791963       11.01722213423379        2.38820150033980
H           -7.74825095028688        9.51678484869371        1.94495414960346
H           -6.49403834517984        9.68081420993742        4.19913415133334
H           -7.62486757713509       10.96487359175771        4.65337075686281
H           -9.67458944472877        8.58646278649021        5.87320924316152
H           -3.09856612181079       11.06573656706144        0.03905974213015
H           -3.23256654161660       12.82040966201376        0.03162214541219
H           -1.24671476836321       12.28432451579343        1.26950761971685
H           -2.44928833491402       12.87852472322319        2.41255538739938
H           -1.46988254282453       11.02846602554425        3.49668231774648
H           -3.01339617721353       10.42876681799536        2.91546439637113
H           -1.55357531314461        8.69676908308845        2.32701706927701
H           -1.62995872991498        9.60497727685389        0.82387935456024
H            0.65832793402680        9.20633186615699        1.07736576361310
H            0.47471446709034       10.85421910065123        1.65075823516771
H            1.91454681350963        9.78648027513863        3.19305788935844
H            0.37019236721638        9.94171753761760        4.01930434198653
H            1.26300689987927        7.78576502944346        4.51253445269016
H           -0.11929276558641        7.52794219658230        3.45720148685715
H            2.79462914906320        7.54998564552652        2.53850020213768
H            1.84504493028133        6.10018881397164        2.85498302716195
H            1.40394409278676        7.16659785689717        1.52505652812279
H           -4.01309938752805       14.69518871768002        1.16569371692333
H           -8.38414972380052       13.19215564708854        3.05353969087424
H           -7.81970308934180        4.89815418165096        2.90125120415260
H           -7.01595567122211        6.46126306501452        3.04298625210792
H           -8.94950347061052        6.90473285099175        1.76590871731460
H           -7.72661356179500        6.76177950559259        0.49101905150855
H          -10.10643537872651        4.79278750741597       -0.92848936182235
