34
 energy: -43.040402460378 gnorm: 0.000511778301 xtb: 6.7.1 (edcfbbe)
C            1.19762343852378       -0.42872585709038       -0.11450964895225
C            0.29959223130904       -1.19223267623326        0.85418161630999
N            0.83161162573575       -1.12082312970485        2.21213498782198
C            1.20922966267799       -2.17661545482800        2.92269494248534
N            1.64558718235846       -1.83306128628208        4.12804760668968
C            1.54998129713902       -0.46091349817246        4.22535240264553
C            1.02827307191368       -0.00057211365985        2.99749810425421
C            0.81300562473947        1.35825783503676        2.78557437613941
C            1.12958174760271        2.21945466619832        3.81425086945538
C            1.64662702346540        1.75950229437406        5.02847682290398
C            1.86506922889734        0.41811674710281        5.25592267682768
C            2.11653522550974       -2.75014123169877        5.16067682303061
C            0.96963778582462       -3.64801182908870        5.61615439847606
C            3.30749374448374       -3.55377378402076        4.64793860112103
C           -1.14612602587041       -0.70487345144274        0.82766727881680
H            1.16518623294170        0.64088615593858        0.06559536278685
H            0.86168883736079       -0.61204512215184       -1.13093036476456
H            2.22860399637878       -0.76455499526056       -0.03061793927764
H            0.31735094283069       -2.25397582403847        0.58422751818769
H            1.16572270925245       -3.18613343975788        2.55994869212343
H            0.41517652455329        1.73818688321177        1.86036272307153
H            0.97388777165278        3.27796484813784        3.68023239688183
H            1.87895460197256        2.47228213169378        5.80326532993887
H            2.26347863429972        0.07364337650488        6.19603508705811
H            2.43930648858326       -2.12614422325553        5.99775554860793
H            0.65300233964024       -4.31565991040147        4.81898392361913
H            1.29685290397560       -4.25423562250345        6.45538002010611
H            0.11719192977639       -3.05387811118545        5.93719965132784
H            4.08638900598621       -2.89453158070036        4.27195131131669
H            3.72286861393874       -4.13954961149141        5.46244263144131
H            3.01258018103758       -4.23854526744190        3.85726311757120
H           -1.55211084164830       -0.84490609733364       -0.16972204999200
H           -1.75647816300864       -1.27154049119862        1.52705050299786
H           -1.21729557383414        0.34839967074368        1.08007467897232
