30
 energy: -50.920911847906 gnorm: 0.000790121436 xtb: 6.7.1 (edcfbbe)
C            1.29940627071722        0.02414804489800       -0.59790764013628
C            0.63412306614136       -1.27054899652566       -0.16666832024307
O            1.02092027794657       -1.69235765483848        1.15599003345582
N            2.31776355158018       -2.05866071202872        1.28032634158061
C            3.31609807591118       -1.27497744321602        1.77045065555859
C            4.43639900383935       -2.04896367313861        1.78912466451703
N            4.10115440505856       -3.27680129744996        1.30577779444786
C            2.80767446308383       -3.26769289070432        1.00413848511790
C            4.98685874832772       -4.42464360987699        1.22947411541975
C            4.95535599047946       -5.19736487125250        2.52629124769443
C            5.89683436041711       -4.95331063834817        3.52018296089867
C            5.87847779673166       -5.64587445635181        4.71495190522484
C            4.89884286970525       -6.60719306034368        4.93449616620342
C            3.94512226608866       -6.86863230753900        3.95798000555044
C            3.97780317274118       -6.16159752812603        2.76919833945955
Cl           2.78033348957908       -6.51923039095138        1.57236387903712
Cl           4.86074146642922       -7.47974267157951        6.40950157203990
H            1.11081982109722        0.80794945970262        0.13056591564197
H            0.88017335668009        0.33446537375602       -1.54994912361573
H            2.37344778988644       -0.09736832055501       -0.72408301930525
H           -0.44341712214660       -1.14102313385210       -0.05940861612733
H            0.83090473924099       -2.07852266139317       -0.87993095114880
H            3.15398324043335       -0.25939711738254        2.06919494089406
H            5.43057976653951       -1.80500368837712        2.10438609528115
H            2.24533301986438       -4.10169166709653        0.62827824610813
H            4.65692082392896       -5.06286899268223        0.40765569912506
H            5.99794118460803       -4.06482801668950        1.03284025821540
H            6.66847862804462       -4.21783651366670        3.35059532830573
H            6.61967200772712       -5.45030493930795        5.47214501094024
H            3.18898346932083       -7.61848562508357        4.12765800985862
