92
 energy: -101.991077471806 gnorm: 0.000345785738 xtb: 6.7.1 (edcfbbe)
C            1.45531659505847        0.02802529820989       -0.63030990955692
C            1.49350350881475       -1.42155048085834       -0.16138662545299
C            1.47722311818158       -1.56306742911340        1.36138489100349
C            0.22244867205252       -1.01716888234448        2.04617456263717
C           -1.09045414315899       -1.66502851614709        1.60194757700614
C           -1.16789806774566       -3.17829490804739        1.81365706159226
C           -0.96997681821260       -3.63775452875488        3.25930331988295
C           -1.96902913898620       -3.05726008852997        4.26186282297977
C           -3.43512817245306       -3.39040021591257        3.97808410027389
C           -3.76361049172039       -4.88463948044700        3.94558548321564
C           -3.39911850785592       -5.65250159878312        5.21764197295344
C           -4.06070155624778       -5.13146845645027        6.49447961573782
C           -5.58802033484347       -5.22005088310115        6.50965409934511
C           -6.15447132469686       -6.63813010874907        6.40303808923322
C           -5.64179887579701       -7.61906481410637        7.46072862872027
C           -5.84681555186501       -7.16410739201712        8.90719237444616
C           -7.31002828346289       -7.02757414172256        9.33217160549997
C           -8.04189257749903       -8.37021883188774        9.44579269713289
N           -7.37723074683019       -9.23346614881986       10.39638542598739
C           -6.67698093038288      -10.36358250454138       10.10895984050345
C           -6.11843878840299      -10.80305590958317       11.27130602506333
N           -6.48694922310721       -9.93404735414492       12.25165635042007
C           -7.24361722729405       -8.99181358112684       11.69836001941563
C           -5.99114680637559       -9.93836914370655       13.60777025475633
C           -4.58557066078446       -9.32479037668099       13.65449396371407
C           -4.53251736615105       -7.84683980028629       13.25026281659965
C           -5.30064336560653       -6.91854665343699       14.20677074222330
C           -5.07398017406817       -7.12613557431730       15.71324341485173
C           -3.65128389189861       -6.95156041773021       16.16126338243874
C           -3.01651347380096       -5.79609197602046       16.32894337726598
C           -1.58847913686555       -5.75014007401635       16.78037248340154
C           -3.62382475503943       -4.45138784904933       16.06836517499421
C           -3.07326306968121       -7.41994659447181       13.09610743464050
H            0.51348340383600        0.50168363554166       -0.36522165961513
H            1.56482989460626        0.07747329758566       -1.71135650673694
H            2.26597510509713        0.59551566642249       -0.17786694868232
H            0.65271661707607       -1.96641937079641       -0.59413462962643
H            2.40856344840713       -1.88818507196892       -0.53491249742684
H            1.59726727936060       -2.61848388572135        1.61531783981454
H            2.34226847229490       -1.03268509050597        1.76862895724489
H            0.34028027010614       -1.14381276119388        3.12471063888515
H            0.15259279517032        0.05623999277951        1.85951028329823
H           -1.90882564998767       -1.18288028783224        2.14155872018541
H           -1.24907238715783       -1.46218228617354        0.54103498826001
H           -2.13988826625669       -3.52448512487429        1.45471145961765
H           -0.41029195576527       -3.66517807777671        1.19624477134603
H           -1.02627578083112       -4.72850161692213        3.28266606773446
H            0.03559336770610       -3.36532440881387        3.58604111650269
H           -1.70247961145759       -3.41693170735234        5.25856183516447
H           -1.86585650254988       -1.97071147016707        4.28022720764946
H           -4.05091248721505       -2.90052797582863        4.73626232277990
H           -3.71938991519458       -2.96114296050178        3.01574844235262
H           -4.83205438147349       -4.99642441723612        3.74673331026876
H           -3.23610679300862       -5.34778089722627        3.10980016418709
H           -3.66256557067091       -6.70291448489205        5.07263728323082
H           -2.31739282625522       -5.61355916317164        5.35767494584465
H           -3.65333856331325       -5.68521352813518        7.34401666465188
H           -3.78210188936020       -4.08635354590176        6.63693729789996
H           -5.95298539960676       -4.74945584491360        7.42609799959879
H           -5.98590684120451       -4.63729075604234        5.67809799330826
H           -7.24465210840128       -6.57758081553054        6.45223759638123
H           -5.90686617492566       -7.04744926278924        5.42275689849042
H           -6.12638979656402       -8.58540671271644        7.29878648322742
H           -4.57301415050745       -7.77321226608439        7.30816867724457
H           -5.33262026715503       -7.86460185771050        9.57275287061823
H           -5.36689603204050       -6.19517293746113        9.03931692324963
H           -7.35606944870082       -6.51415140613508       10.29491138109232
H           -7.84498782349962       -6.41451451022247        8.60872386548462
H           -9.07162956888101       -8.20528342405264        9.77245710820472
H           -8.05840856490749       -8.87844485081340        8.48169226930793
H           -6.62102201473623      -10.77355522492722        9.12151319037832
H           -5.50125504272831      -11.65736305818437       11.45997486832819
H           -7.69364735237124       -8.17309621543378       12.22454104408515
H           -6.67989606222568       -9.36993902222348       14.23329891951607
H           -5.95789982755987      -10.97068460334494       13.96168671799674
H           -4.19806429076874       -9.43635186738916       14.66524703833982
H           -3.93281996082426       -9.89517660802053       12.98982949744945
H           -5.00128505900160       -7.74012002250044       12.26016539260246
H           -5.02677129895420       -5.89339349900327       13.95661212750207
H           -6.37519767948414       -7.01572972256068       14.01986271106234
H           -5.70805019874182       -6.40112636654752       16.23032750582401
H           -5.42327932112643       -8.11717948416785       16.00894567475726
H           -3.11751840521267       -7.86720483866395       16.38306824975647
H           -0.98235549649244       -5.20877273945937       16.05455045691881
H           -1.51232162546256       -5.22166532110490       17.72968972176709
H           -1.17611301474003       -6.74781479249318       16.90691041454523
H           -3.27386293297905       -4.06376360835371       15.11106206408017
H           -4.70914984815825       -4.48616020434714       16.04839828813514
H           -3.31249628592505       -3.74803804073218       16.83788108346599
H           -2.57198247017592       -8.03409411478928       12.35086245847823
H           -3.01642875861685       -6.38374406128403       12.77496239256071
H           -2.54358338353059       -7.51227698301621       14.03809496819476
