24
 energy: -28.947579628048 gnorm: 0.000436013445 xtb: 6.7.1 (edcfbbe)
C            1.30575794515848        0.81510897107171        0.58931038251343
C            0.21968571260544        1.03525764404300       -0.46275579897926
N            0.78572936844361        1.56678557991159       -1.70028906484536
C            0.90218512938295        2.90779116879360       -1.85362706770072
C            0.38232454333387        3.84036571005252       -0.81670392657147
C            1.49199393754462        3.41791601680311       -2.99963982289588
C            1.96078873600116        2.56689889335199       -3.98477802299720
C            1.81758397393911        1.20292511804143       -3.80188062697352
C            1.22573856448169        0.70734873767564       -2.65046779638614
C            1.05954328777222       -0.76235728199584       -2.48365662789807
H            2.05588187609068        0.10718707057060        0.24760556620207
H            0.85019963097392        0.41904979844653        1.49200165922403
H            1.81235504735816        1.74244759880031        0.84205724321861
H           -0.28529123727168        0.09469366457619       -0.67679655047707
H           -0.52751547794840        1.73106963944962       -0.08451549166049
H            0.79218595366611        3.63330561887366        0.16916639730839
H            0.63875022823950        4.86215623784558       -1.08086565868427
H           -0.70488807371183        3.78044568033976       -0.75065234871183
H            1.58114359388326        4.48593881214674       -3.11274913487772
H            2.42546517880501        2.95796684331032       -4.87568973856810
H            2.16504157526505        0.51159163054296       -4.55203236736991
H            1.54536922443665       -1.28159837726353       -3.30462698314629
H            1.49000316821103       -1.12469548919259       -1.55303064745044
H            0.00421811333952       -1.03774928619477       -2.49848357227269
