27
 energy: -39.171017361205 gnorm: 0.000965928956 xtb: 6.7.1 (edcfbbe)
C            0.48995598134629       -0.19170735771633        1.05206424122717
O            0.04301664220515        1.17003061153172        0.99679279640487
C            0.98933878851305        2.10875071348162        1.03840010123518
O            2.16191831134760        1.92000221043472        1.11846045318439
C            0.36945920481518        3.52019541585631        0.96580585671246
C            0.99735286704830        4.28974984129677       -0.21106476145537
C            0.54996050137198        3.64714971413999       -1.49819501161212
C           -0.66513287002853        4.02470806868273       -2.07656692147192
C           -1.13513245927242        3.37052405381025       -3.20800853713634
C           -0.40832163714172        2.32892319763650       -3.75598391516623
C            0.80166323991061        1.95656685246940       -3.19016519360947
C            1.27663806806645        2.60706998802183       -2.06451536040531
N           -1.10409626906125        3.42787392284536        0.75657730530813
H           -0.37672361656470       -0.80269261559769        0.81667027546586
H            0.86265432212435       -0.42004161699385        2.05059823464457
H            1.28697908643633       -0.35178231876472        0.32643916110993
H            0.59020911223647        4.02232641357440        1.91207158043886
H            0.69593335090716        5.33737134256509       -0.17098666490385
H            2.08128220206423        4.23973273943377       -0.10975372918363
H           -1.19359018452380        4.90211773902907       -1.72071513190645
H           -2.06241370534921        3.68521971606958       -3.66172142597629
H           -0.77245820483208        1.82121973868263       -4.63496938215767
H            1.38004582216940        1.16024210003136       -3.63136010023072
H            2.22253698129598        2.32086782774990       -1.63143654533735
H           -1.43947743619159        2.52086638723194        1.11180222118841
H           -1.61442639498165        4.19775661223707        1.19975226885549
H           -1.24412170391420        3.46410870225939       -0.29373181522341
