48
 energy: -67.083475315461 gnorm: 0.000258349195 xtb: 6.7.1 (edcfbbe)
C            1.58199891514674        0.08482929220212       -0.46249821134165
C            0.65665771618823        1.20025534717763        0.01118723956303
C            1.25083800678421        2.57673786635154       -0.28603611614510
C            2.41358113779511        2.96697485910354        0.62479331105208
O            3.17101035641900        2.26548021208137        1.21544882182532
O            2.44648267629397        4.32253642339917        0.73238014776996
C            1.41431902562524        4.89330819467408       -0.05684797850674
C            0.33919181656739        3.80459931113674       -0.12746615573397
C           -0.46955414656268        3.70295892499030        1.18663674338349
C           -0.95154702999014        5.01468761898323        1.68922685357898
C           -2.00636908658840        5.78477883127642        1.28197671501477
N           -2.03209525545087        6.90384704049407        2.05613928925552
C           -1.02379309134742        6.82964022305244        2.91596528542900
N           -0.34758323350550        5.69868387949753        2.71546110166733
C            0.80547246318995        5.27195508794616        3.46716826434691
C           -3.00494592556469        7.97609144734638        1.94276630332090
C           -4.39280967171796        7.42459219967205        1.72410643876931
C           -4.98318660037689        7.55902390896190        0.47313501293291
C           -6.25014762103858        7.06078258379113        0.23238387158516
C           -6.93307479377547        6.41632376594961        1.24924940509140
C           -6.34885443888742        6.28018016515298        2.49555624357786
C           -5.07785097624430        6.77768951743688        2.75617691089167
C           -4.47796472746901        6.61914663578467        4.12128651639036
H            1.73540166595670        0.13954027434513       -1.53758527718238
H            1.14785886916267       -0.88288105050165       -0.22794698523911
H            2.54512991037826        0.16018867745409        0.03324639603444
H           -0.30607734249235        1.11775315397678       -0.49858007139552
H            0.48868271351982        1.08416419823107        1.08269603745848
H            1.64659931651999        2.56647562247746       -1.30924953566096
H            1.80299434340443        5.11839490865887       -1.05655963960812
H            1.10214489610259        5.82795443520884        0.41067442276097
H           -0.33151712220808        3.95772922462152       -0.97213869216026
H           -1.32646347466045        3.05134757478994        1.01268837400364
H            0.15761964162601        3.24152842608416        1.94976908134534
H           -2.73413597506287        5.60548183424757        0.51741737391730
H           -0.78702418064725        7.56514377818799        3.65997445108672
H            1.64085381595670        5.04875779696219        2.80098108137234
H            1.10236388260150        6.06293515331937        4.15171973910528
H            0.57111855226416        4.37726272940271        4.04606599760520
H           -2.72493389016057        8.60835361914035        1.09431855576162
H           -2.95413973036278        8.57670224741623        2.85362920222964
H           -4.44964338105550        8.06921411060551       -0.31610845390602
H           -6.70015919653426        7.17803505842869       -0.74049936279746
H           -7.92240688816964        6.02430995109542        1.07389935839235
H           -6.89001722732355        5.78261351798796        3.28587970274665
H           -5.20942436728106        6.19640335735729        4.80366390823847
H           -3.61543379443892        5.95213938254259        4.10065856311738
H           -4.15923655255933        7.57969868151034        4.52422975904812
