11
 energy: -17.982245565587 gnorm: 0.000696211996 xtb: 6.7.1 (edcfbbe)
C           -1.14284069614483        0.10666084850552        0.02598923984600
N           -0.33803037409793        1.09930782058591        0.12044129178021
N            0.92512829217865        0.64485304607509        0.11111309506234
C            0.91227986138881       -0.63220018198125        0.01135407867735
N           -0.40524877521858       -1.06895365492472       -0.04874428842992
N           -0.88947578401399       -2.40771605419797       -0.17313236298326
H           -2.21136005377731        0.15305656712005        0.00773847588470
H            1.76580835494383       -1.27647727857861       -0.02045115434834
H           -1.31784408270293       -2.57682186047582       -1.10610097044998
H           -0.10007950658594       -3.07129588902300       -0.05405593250416
H           -1.60092723596979       -2.61694336310519        0.55539852746505
