30
 energy: -42.462701323315 gnorm: 0.000987791298 xtb: 6.7.1 (edcfbbe)
N            2.40571567060578       -0.18125870012307       -1.50849244935854
C            2.77388967442337       -0.16280341110327       -0.42561533074696
C            3.28006078909288       -0.20543208268377        0.91782664709715
C            4.62152592471211       -0.95067850333976        0.98529605669248
C            4.51253038137255       -2.43653973167541        0.62085775607505
N            4.22557677309681       -2.63204565812280       -0.78488661120818
C            3.07829067012576       -3.12768849864289       -1.32634360159044
C            3.20566220915112       -3.05813168462398       -2.67960070044226
N            4.43012152338208       -2.52276843135931       -2.94321421606347
C            5.03082342960174       -2.28127135888554       -1.78384018055814
C            4.97829720538106       -2.23133158937404       -4.24965117850248
C            4.23357402650553       -1.10106890910151       -4.97458216673269
C            4.05738885177641        0.17945732732053       -4.13710658967060
C            5.13596135686528        0.39353521898154       -3.21394373942076
N            5.96218833858650        0.48135202557354       -2.42699257920350
H            3.41689063288017        0.82379508438380        1.26227032781540
H            2.53363227715672       -0.68091053439280        1.56123859602499
H            5.34040388526599       -0.45965609183042        0.32680760439679
H            4.99963478575112       -0.88408754239114        2.00515582084152
H            5.45890506937106       -2.93165183507914        0.85523166249225
H            3.71795117773280       -2.91528538845494        1.19709788603751
H            2.26203066098239       -3.48404446679694       -0.73234269220282
H            2.52189392527036       -3.34763672502434       -3.45085038884971
H            6.00972988619764       -1.85506182255705       -1.67227348090815
H            6.02605622050579       -1.95593224248394       -4.11209259250224
H            4.93149099874433       -3.13711505899059       -4.86040384957758
H            4.80992363350564       -0.87800784710245       -5.87342627909320
H            3.24742371277868       -1.44302158880531       -5.28958813200438
H            3.97135139655949        1.04675291476920       -4.79435818639638
H            3.14612491261199        0.12621713191479       -3.53115741243596
