41
 energy: -61.865675033692 gnorm: 0.000363733329 xtb: 6.7.1 (edcfbbe)
C            1.39875088977983        1.53196914516361       -1.08181493050814
C            2.65298723209720        0.73166872090285       -1.38662108464816
O            2.41190522965257       -0.22196524441199       -2.44367584588336
C            1.94545932084207       -1.39765083047073       -2.11832800266994
O            1.72244031419881       -1.82843480609973       -1.01897013891712
C            1.69236773686159       -2.25670946256457       -3.38418754542619
N            1.63367885046014       -3.63271795442215       -2.98836210490913
C            0.77683257336292       -4.10930270858078       -2.08542542802373
N            1.07624437499093       -5.35649602756614       -1.74889133678184
C            2.21030765358579       -5.72225126061625       -2.44319759866295
C            2.57295632742978       -4.61506100139899       -3.23603067845121
C            3.68345920871736       -4.65676093345534       -4.06988231227754
C            4.41462107930085       -5.82655805519732       -4.08115618760639
C            4.05789699759235       -6.92454062586568       -3.29300519051933
C            2.95567873333783       -6.89591543490698       -2.46465402541511
C            0.38759959240404       -6.12582605771034       -0.73195936227060
C            0.63679527908740       -5.52368178009331        0.63346450825672
C           -0.42082925386033       -5.08203238146292        1.41467796662827
C           -0.17963300868141       -4.52390719353922        2.65857146318501
C            1.11845072825342       -4.39269247224042        3.12048015927477
C            2.17755198064503       -4.82641401564124        2.34004930723503
C            1.93876924765194       -5.39244269381477        1.10119014993413
H            1.03188827064888        2.01900373224347       -1.98172450666370
H            1.63196593017540        2.29196402980501       -0.34255369987294
H            0.62087455836597        0.88521237515199       -0.68249039759409
H            3.44810815035614        1.37176516086558       -1.77063666917951
H            2.99592305313374        0.19168314368044       -0.49975554204921
H            0.74353915182179       -1.93487164405437       -3.82416899046606
H            2.48911612290868       -2.09796012039599       -4.10974531662991
H           -0.05361037776842       -3.56087438777027       -1.68375763435415
H            3.96772248740657       -3.81802345608307       -4.68403268959148
H            5.28480256073610       -5.89826936766563       -4.71370859845473
H            4.66198747543295       -7.81661482655949       -3.33638198718778
H            2.69059993597247       -7.74952970743149       -1.86231366075768
H           -0.68271739600743       -6.13197167414400       -0.95279207938483
H            0.75884289264244       -7.15151455318437       -0.77604083053545
H           -1.43564616095682       -5.18412398790915        1.05821144702463
H           -1.00764706898547       -4.18969751523304        3.26437136367864
H            1.30548924581010       -3.95471194932991        4.08838592084838
H            3.19079950731049       -4.72780263058495        2.69762751273235
H            2.76754057329228       -5.73567954737842        0.49725457688391
