73
 energy: -80.880413285308 gnorm: 0.000680031719 xtb: 6.7.1 (edcfbbe)
C            1.12439630009895       -0.77718322566804        0.05971233247250
C            1.17913416306686       -0.40782129990815        1.53730037500569
C            1.50393507879031        1.06706089329392        1.77877991618584
C            0.47527706196963        2.05467239414923        1.22367425874725
C           -0.94645545131170        1.87916179134273        1.76061942957299
C           -1.08226839216993        1.99273205550033        3.28008293352953
C           -0.63028665358738        3.32922247119309        3.87177370504907
C           -1.36443439235168        4.55799603266264        3.33106282978100
C           -2.88478827810768        4.52981486575542        3.50011667020248
C           -3.37252575435939        4.37844001776179        4.94201156973473
C           -2.92758102785589        5.48866255121533        5.89568184180468
C           -3.38044476225095        6.89724813354628        5.50613726148511
C           -4.89338551855161        7.07392076869364        5.36020806620742
C           -5.71078717918126        6.70470248656904        6.59975817733615
C           -5.35460942719773        7.48559955768157        7.86607866920800
C           -5.53178181006749        9.00161686370366        7.76214376808308
C           -6.94712604115781        9.46564942930047        7.40797027965931
C           -8.04555484764633        8.96034104613848        8.34734655822745
C           -7.85952731496743        9.33564724392041        9.81742034716305
C           -7.93512339032339       10.84346008441291       10.08657330452010
N           -9.26059987145360       11.34910809557439        9.81434543081963
C          -10.32098719639363       11.28602564792390       10.66546920148848
C          -11.40141323035390       11.79016152964131       10.00725332280567
N          -10.98462819494406       12.14806715513022        8.76071896176974
C           -9.68700649260298       11.86777081318569        8.66653809630085
C          -11.81425155837396       12.72969728218098        7.73968167829213
H            0.29970482835560       -0.27515044919039       -0.43976704356391
H            0.98615384614331       -1.84994945298979       -0.05590077292777
H            2.05067764872054       -0.49614731756384       -0.43711019356530
H            0.22923127395556       -0.66132758068351        2.01103446009951
H            1.95302872398717       -1.00867953301484        2.02169809714312
H            1.61599082701208        1.22844406244881        2.85297925345277
H            2.46928154489124        1.29011893709523        1.31668020628348
H            0.82147243247896        3.06672664308266        1.44468190911118
H            0.44182862397646        1.96142430761293        0.13629262954397
H           -1.58532781412045        2.62644830218058        1.28452642095957
H           -1.32488779403194        0.90054838490426        1.45822377566246
H           -2.12797746140326        1.81760098838183        3.54323316930601
H           -0.49966853787407        1.19870389199461        3.75153307715143
H           -0.75624257958080        3.28224265215630        4.95598382793397
H            0.43679934132184        3.46204163524870        3.68261637610502
H           -0.96164195945050        5.44296078560943        3.82932489624981
H           -1.14472393307344        4.66617553924908        2.26699760989638
H           -3.29319727040473        5.44942431908706        3.07443557260114
H           -3.29307873883421        3.70212342034826        2.91680214954516
H           -4.46380372470547        4.32718496714115        4.93021505563789
H           -3.01535125158647        3.42735686273371        5.34116915744049
H           -3.30166478285382        5.25136664153492        6.89449083780471
H           -1.83788029646781        5.49013901901920        5.95813307914242
H           -3.00347928127844        7.59725585216599        6.25581905133499
H           -2.91696431177334        7.17128487485103        4.55659960851242
H           -5.09221219942964        8.11356738126538        5.08790913375475
H           -5.24471420228782        6.45731720033774        4.53102591262730
H           -6.76942167259418        6.84586817376943        6.36741102358155
H           -5.57294545727015        5.64340122524884        6.81158238354818
H           -5.96049093888251        7.10053574555232        8.69002354673849
H           -4.31277323201926        7.28877997291151        8.12208018161287
H           -5.22340867158649        9.45161211342555        8.70928778130652
H           -4.85535272528604        9.38519668859417        6.99732287855443
H           -6.94865677873278       10.55929797848820        7.37766363414163
H           -7.18854064157299        9.12295113659642        6.40121156124463
H           -9.01356228490149        9.32865698796438        7.99196792886785
H           -8.08224419590615        7.87319421877169        8.28546170782222
H           -8.62094401382214        8.83051877620242       10.41549726529319
H           -6.88682974335656        8.98739036043134       10.16043210964594
H           -7.70269984963030       11.04420357886013       11.13414005036464
H           -7.22072543983662       11.37561396946092        9.45758996369795
H          -10.23998825385247       10.90293013041698       11.66269940831739
H          -12.41287082456789       11.91711384798892       10.33563223813567
H           -9.07611225830513       12.04329048433151        7.80214199776247
H          -12.29180129042825       13.63443739468013        8.11711261069452
H          -11.21096341446571       12.98108528072303        6.87019530035510
H          -12.59318708337723       12.02625491570285        7.44184018554868
