26
 energy: -33.776043729695 gnorm: 0.000890102295 xtb: 6.7.1 (edcfbbe)
C            0.51646587877436        0.72170121908592        2.05674999749777
O            0.76827139659838       -0.65401297911818        2.27132393195070
C            1.46962183904086       -1.30703608328966        1.25763886695388
C            0.47449559568680       -1.81607635793597        0.18759298003884
N            1.06601905350783       -2.35492573669342       -1.06863002545786
C            2.09183390200458       -3.36849618835381       -0.79069843366280
C            1.59091719584193       -1.21297415130852       -1.91295663203219
O            0.45925908338016       -0.63787630608819       -2.42760515194926
C           -0.33055417941594       -1.70957647182669       -2.91312631667931
C           -0.02808828833611       -2.87673182892365       -1.94532282323563
H            0.02359684261133        1.07426164019495        2.95864900106345
H           -0.14003427417138        0.89652741342952        1.19862089072688
H            1.45122130615657        1.27372197135302        1.91586582439795
H            2.22825943924491       -0.64294439848535        0.81882731274485
H            1.96984009654070       -2.14944829949866        1.74408537376415
H           -0.12947913368185       -2.59699817722143        0.65371347179777
H           -0.18331465968263       -0.98912997391493       -0.09326547553840
H            2.92852895450266       -2.91894316717039       -0.26099014353744
H            1.66935405520070       -4.16352893679404       -0.17859167573123
H            2.46079967707668       -3.79697890806471       -1.72152811012614
H            2.24327527931456       -1.64678229807571       -2.68633227955426
H            2.13907993909578       -0.47827816139372       -1.32328714135644
H           -1.37093641029869       -1.38656674387543       -2.90095550508824
H           -0.04415220572027       -1.96149795682631       -3.94004091918618
H           -0.89535405432158       -3.15193827339104       -1.34854837251724
H            0.32012367104919       -3.75715084581394       -2.48432864528351
