48
 energy: -64.595305660537 gnorm: 0.000268481810 xtb: 6.7.1 (edcfbbe)
C            1.42567820290174        0.52101058970978        1.06164422683100
O            0.43805760844788       -0.41584380343655        1.43315472994065
C            0.80502300761258       -1.68236011372721        1.71216780159213
C           -0.22153380110419       -2.54009559686667        2.12287734024345
C            0.04034545930887       -3.85564750034646        2.42695600748625
C            1.33013427352740       -4.37112926982374        2.31856903328002
C            2.34770053094991       -3.51359049788718        1.92354752437199
C            2.10007139001543       -2.18567817188716        1.62118219934245
C            1.64360770047335       -5.80948503983555        2.67655001997076
C            1.47381766161091       -5.98536763442935        4.17812853992643
C            2.58255048733296       -5.79072224158938        4.99837726001130
C            2.48241417204431       -5.89145218631227        6.36615071944212
C            1.25652457021163       -6.19089608666651        6.96845932385767
C            0.14461469379015       -6.38588678700451        6.15435000338427
C            0.25956966119339       -6.27961494586854        4.77860963710175
O            1.26186932838244       -6.26876810597067        8.31494031646682
C            0.05658088248977       -6.54838976725289        8.99195173325096
C            0.79479503647328       -6.84462736061024        1.92389574819643
N            1.10559868954864       -7.04680802525433        0.47261044672737
C            2.52704542822077       -7.37744743924127        0.26693651483089
C            0.28524983064372       -8.17504793332707       -0.01045953255994
C            0.76753696065753       -5.84611225643764       -0.31242348335593
H            0.89570213797906        1.45864182594456        0.90754148880867
H            1.92373547638155        0.23051061156784        0.13176083236516
H            2.16952056594246        0.65135692912399        1.85265101443018
H           -1.21747188863932       -2.13707848589510        2.20791564733953
H           -0.76915745097562       -4.48032282575306        2.77214894908306
H            3.36391512448776       -3.87831709588067        1.85641136429752
H            2.92247278816320       -1.55476909530307        1.32604091806566
H            2.70184592571809       -5.98971637811522        2.46947937561813
H            3.53954065553158       -5.55248094754847        4.55771522872534
H            3.34078522921116       -5.74143372391587        7.00024025598734
H           -0.81897110570957       -6.61768735913655        6.57840238303341
H           -0.63119204510268       -6.43621939310702        4.18896601279598
H           -0.69846699349070       -5.78093450193087        8.79792467828939
H           -0.33834489023191       -7.53105353649496        8.71698496850423
H            0.30826589072036       -6.54570779541058       10.05058918974448
H            0.92231551979121       -7.80858894871499        2.42242102616930
H           -0.25615254643442       -6.56112917728571        1.98396486536604
H            2.82876231129449       -8.17744512639315        0.94088157950461
H            2.68610842430895       -7.70426513474856       -0.75936079213669
H            3.15026177194694       -6.50500655142572        0.44697897249613
H           -0.77072975301699       -7.97655368728689        0.16410857708234
H            0.43791296214582       -8.32041632890334       -1.07869390446787
H            0.55868239116267       -9.09208042444991        0.50863619962356
H           -0.29295338401230       -5.62081445501134       -0.21720579788558
H            1.33108402124244       -4.98821537554150        0.05083912890204
H            0.99971708685304       -6.01178284429721       -1.36300827205929
