59
 energy: -68.613667183811 gnorm: 0.000434317976 xtb: 6.7.1 (edcfbbe)
C            1.53748691761298        0.79040150726470        0.43345583721437
C            1.24645677507935        1.78083126588271       -0.68770171415489
C            1.57846774356872        1.23461314630520       -2.07733275783105
C            0.77901294827963       -0.00201291480563       -2.49371266874721
C           -0.73982482803347        0.18010189616597       -2.49457989902923
C           -1.25533579307798        1.28932650102793       -3.41334655853192
C           -0.92981261216856        1.10210881523153       -4.89674665970583
C           -1.45116347937847       -0.19736286433869       -5.51561210723289
C           -2.95226965615509       -0.44152218912537       -5.34477980747409
C           -3.84932969393336        0.62586262807688       -5.97710751106013
C           -3.87549934706822        0.57356327137453       -7.50981994696785
C           -4.65159557980347       -0.62402247354910       -8.07102625946355
N           -6.02993338582922       -0.33490812558725       -8.58514519674582
C           -6.05800699492645        0.67839183396593       -9.68567676957986
C           -5.04232035715001        0.55000475279594      -10.82513189270407
O           -5.37912389813489       -0.43504219804220      -11.79050188389778
C           -4.66333049881767       -1.58106520967242      -11.80150378159585
O           -3.89414302995185       -1.85494710577536      -10.91500992816180
C           -4.97572599242448       -2.41269690123413      -12.99689665058895
C           -6.60898239667704       -1.61203356924597       -9.04910415213464
C           -6.88337601588423        0.17959927764390       -7.49622112876930
H            0.88927153687876       -0.07991535823102        0.36860404583577
H            1.37545538741762        1.25972745195835        1.40102942784884
H            2.57108313127493        0.45484710511221        0.38540587840827
H            0.19772237107390        2.08091289714514       -0.64554586133908
H            1.84616991253202        2.67991754820684       -0.52680435678238
H            1.42665843348223        2.02933122569137       -2.81111822386862
H            2.63898798433760        0.97233480713975       -2.10228390669724
H            1.10928308479088       -0.30283226829414       -3.49056910158497
H            1.02002761521220       -0.82493358877232       -1.81853677733760
H           -1.19783315437012       -0.77057533343255       -2.77762387622837
H           -1.07241537323407        0.40127860194835       -1.47893132389605
H           -2.33786142527298        1.36834230565931       -3.28480883807525
H           -0.83024167354419        2.24180304128723       -3.09334483458230
H           -1.32849444391883        1.95834322340371       -5.44722111573489
H            0.15269885715419        1.12274260673412       -5.02891940759398
H           -1.19388363341350       -0.19997964168115       -6.57777485461261
H           -0.92580265718068       -1.03911112907301       -5.06323029568576
H           -3.18748729153392       -1.42252214459269       -5.76594651815677
H           -3.17926072080328       -0.48895396596602       -4.27993560671728
H           -4.85886852560593        0.51647776021815       -5.57640828504448
H           -3.48905524454904        1.60773805448054       -5.67277796352401
H           -4.26897322134217        1.51315375584740       -7.89721148182150
H           -2.84496419701995        0.50518196697191       -7.85814370095075
H           -4.09636262046179       -1.09856603605968       -8.88271872513066
H           -4.76423217458612       -1.36991840179370       -7.28195841495268
H           -7.05928308128766        0.66121721091359      -10.12298441295242
H           -5.90368643136125        1.66141936508627       -9.23891230973283
H           -5.05479339325166        1.50045661487377      -11.36705060754956
H           -4.02936183374719        0.36707680955433      -10.45507660475747
H           -5.95090687853654       -2.15576935745156      -13.39858246402804
H           -4.22284836905948       -2.20938987000586      -13.75805779345472
H           -4.91666312116474       -3.46823973891699      -12.74568023143094
H           -5.96353545669105       -2.07947221223252       -9.78700261920396
H           -6.71216363750228       -2.29838435066567       -8.21052539487276
H           -7.59183444848087       -1.44691131721580       -9.48685101562520
H           -6.92322721099993       -0.54449999287595       -6.68460173032771
H           -6.48833143705959        1.11596027856344       -7.10965614987361
H           -7.89554748301606        0.34968073225351       -7.85998311089211
