59
 energy: -94.087360032406 gnorm: 0.000995037197 xtb: 6.7.1 (edcfbbe)
O            2.02141219819613        0.54448380322937       -1.63539129679443
C            3.03264073506421        0.02052713242918       -1.22947231678627
C            3.27023012377770       -0.37022516534401        0.15582749537603
C            4.50584545393351       -0.82462294698647        0.63067411591574
C            4.64793052431649       -1.16761449835341        1.96044379582088
C            3.57056195025269       -1.07204717583455        2.83033173539385
C            2.34229071273747       -0.61919185953610        2.37104238426460
C            2.19235265352805       -0.26706242927151        1.04557547424129
C            4.17677492040270       -0.25425082234043       -2.25220537261871
N            3.63764260084202       -0.07536171536393       -3.56670462438778
C            3.32263107907291       -1.05872937985613       -4.45696013016288
C            2.59499390349889       -0.48878679236000       -5.45429879815679
N            2.45779229614280        0.83715198342505       -5.15163254860760
C            3.08623728671512        1.06274381662672       -3.99759530305163
C            1.70216203934204        1.76898105540719       -5.88771319942062
C            2.15784363969215        3.03483427346061       -6.24599624994451
N            3.41337214967488        3.49297765492244       -6.00893798479948
C            3.97524983504037        4.73428476511225       -6.34641871260537
C            5.35623948550568        4.78633911833501       -6.52447025529020
C            5.97359409081266        5.98282497836911       -6.83275702693011
C            5.22237734644849        7.13970840188747       -6.96100841133725
C            3.85303106600787        7.09209514383267       -6.76483827975374
C            3.22495735502484        5.89910642045041       -6.45311957807980
S            0.94036866983930        3.89362612851945       -7.12063701888207
C           -0.17331864933686        2.55061409760157       -6.97751865308385
C            0.37627178446987        1.48675857861835       -6.31052893461204
C           -0.27346643397461        0.20255600231624       -6.00517571880927
C           -0.66311655277727       -0.65521855684564       -7.02962528509416
C           -1.24471824050833       -1.87381631491150       -6.73073273172518
C           -1.44012059831336       -2.24612609090133       -5.41053501779639
C           -1.04609466790933       -1.39941187381763       -4.38769460830870
C           -0.45840011583377       -0.18165167476471       -4.67949248923942
C           -1.49030477611679        2.88351507205928       -7.51754512112960
O           -1.61365505180902        3.95051535807926       -8.08165092440609
C           -2.62247104906917        1.91698951200579       -7.32350411465267
H            5.36129438629325       -0.89815145838038       -0.02331315448072
H            5.60383398806916       -1.51285715316615        2.32392187856167
H            3.69152663882102       -1.34654796309384        3.86671838184050
H            1.50537563961485       -0.54080029933491        3.04735739903877
H            1.24509171541976        0.08861940177417        0.66870789555353
H            4.98185302356389        0.46168662297908       -2.06275797964770
H            4.55575274477229       -1.27088695023193       -2.14985699985100
H            3.63550288452296       -2.07411267777187       -4.32744939033097
H            2.17227420626819       -0.92126456345103       -6.33701000865316
H            3.13471708460373        2.00905752614180       -3.49655659466206
H            4.10595174509897        2.78501888172780       -5.79682251295575
H            5.94429519050365        3.88340649653346       -6.42771027258369
H            7.04274895991499        6.01015258917750       -6.97522290193156
H            5.70360193338283        8.07285735810188       -7.20644476430197
H            3.26261980264667        7.99071994480447       -6.84974417151899
H            2.16230828289318        5.88798606244695       -6.27790580970790
H           -0.49839285056386       -0.36477744057985       -8.05698404638214
H           -1.54748927422324       -2.53309619805062       -7.52955077336251
H           -1.90074825569123       -3.19399981464615       -5.17985950957278
H           -1.19884846269387       -1.68459215259028       -3.35804547159379
H           -0.16170554567452        0.48182809731667       -3.87945159603813
H           -2.53267745287145        1.10219361688033       -8.03880650571134
H           -2.61339312731518        1.49608899614335       -6.32191284710533
H           -3.56072102207014        2.43404507716269       -7.50686453902670
