11
 energy: -17.944772674491 gnorm: 0.000239939411 xtb: 6.7.1 (edcfbbe)
O            0.86971208824672       -0.62512626586312        0.09043163706828
C            0.37952359082869       -0.68752247557095       -1.14999903321572
O            0.99881618146827       -0.59046190108109       -2.15458826955300
C           -1.14769892923959       -0.89115073000197       -1.10630008670065
N           -1.61392622308987       -1.20209270156580        0.26745526093614
H            1.83059623508845       -0.47446422832895        0.08688141394305
H           -1.61041278769485        0.03292678503359       -1.46297542642184
H           -1.41325638018338       -1.69020493819784       -1.80157292255912
H           -1.18771102627027       -0.52859226151006        0.92384349015243
H           -2.63865549287764       -1.15831606556994        0.33881461276818
H           -1.29866725627652       -2.14050521734387        0.55020932358225
