44
 energy: -45.673595160398 gnorm: 0.000773319095 xtb: 6.7.1 (edcfbbe)
C            2.45085701746675       -0.54456960646911        0.52298828797462
C            1.22898950761177       -0.98002269658785        1.32369147250545
C            0.93602494757378       -0.05415135098097        2.51042264853782
C            0.44452291463992        1.34436215999023        2.11409130464727
N           -1.02684284458564        1.59564323992576        2.20566513896888
C           -1.48949971857209        1.57989109912896        3.63280763469658
C           -0.96231721973566        2.68502209144361        4.55865494122517
C           -1.95616749595638        3.82224603768789        4.82543093331255
C           -3.15049068555555        3.38017676156074        5.66341265969678
C           -1.33868725560703        2.93353170041907        1.61056639479913
C           -1.13631302077954        3.08049309681716        0.09478681302621
C           -2.44742120329789        3.13256174849310       -0.69843911034442
C           -3.22054945280578        4.42570817335890       -0.46889259880383
C           -1.78361315674402        0.55234567498551        1.48955700630624
H            2.31590413103849        0.43347166874380        0.06546977087277
H            2.64532702773121       -1.25853957637267       -0.27203195363963
H            3.32905840191293       -0.50269648947826        1.16230047767398
H            0.36507191676513       -1.05174898820336        0.66130068172746
H            1.41669359222826       -1.97926485869049        1.71848254643328
H            0.23548648107969       -0.54518248251905        3.18546087893099
H            1.86546457389339        0.06693822778479        3.06905323400250
H            0.93158726787438        2.09145522641206        2.73989869656928
H            0.74762836229900        1.53630225210730        1.08559654868122
H           -2.57954133543378        1.62902531703637        3.61700217448320
H           -1.21259543904113        0.60799285793405        4.04090569093288
H           -0.72462519826470        2.22694141546902        5.52004883605285
H           -0.03062490732264        3.10674616655264        4.18247525620418
H           -1.42524229868904        4.60415960651632        5.37008101501753
H           -2.30789791333020        4.26249702167155        3.89118140735774
H           -2.81761182356797        2.96200888862361        6.61018058938040
H           -3.78743588287865        4.23363425342733        5.87645854323123
H           -3.75610496319381        2.63300755761731        5.15448705912312
H           -2.38440453440230        3.14258447955081        1.84103374420174
H           -0.72524110411427        3.66616085646783        2.13344775475329
H           -0.59858229337924        4.01142275580432       -0.09103216194068
H           -0.51434736647440        2.28034848883616       -0.30567895043570
H           -2.20257943254968        3.06128617054603       -1.75899085719614
H           -3.08006518851787        2.27746140314928       -0.45323104073061
H           -2.61093890987649        5.28468621131483       -0.73673446157838
H           -4.11287505180074        4.43863657164339       -1.08815369927799
H           -3.53172260599633        4.53857022704780        0.56746107719050
H           -1.44930800595822        0.48202889938494        0.45814064896475
H           -1.64818201059959       -0.41429735775960        1.96818478240177
H           -2.84450782309847        0.79616509962108        1.49699818406889
