22
 energy: -27.896916144121 gnorm: 0.000714907064 xtb: 6.7.1 (edcfbbe)
C           -2.42506943697657        0.64183790308040       -0.47973626463361
C           -2.50044964198382       -0.64488397568033        0.32638757114443
C           -1.27382705256712       -1.50402384190551        0.03076404639536
C           -0.00132163665849       -0.70726141529151        0.01030483706858
C            0.00489077596640        0.67972634659257       -0.02283526887909
N           -1.27023806897429        1.43003819582246        0.02406973966687
C            1.18430735534613        1.40769409877269       -0.08183217389611
C            2.39523513705731        0.74227840128651       -0.10659182985006
C            2.41444197005471       -0.64424718159162       -0.07390705612723
C            1.23172329541020       -1.35551768576843       -0.01960125426915
H           -2.25521724702315        0.42083668902924       -1.53542689368198
H           -3.33533553519004        1.23481786799584       -0.37966818811652
H           -2.55263027117238       -0.40925115503975        1.39158713080748
H           -3.40757418253768       -1.18800910215633        0.06641671703605
H           -1.19003649571362       -2.30407509447511        0.76691436851710
H           -1.38783560464981       -1.98481831026383       -0.94505901078226
H           -1.15629330376529        2.30017750431748       -0.51001400470548
H           -1.45780012214534        1.69298233088345        1.00123039514423
H            1.15805213285706        2.48733506821808       -0.10790857895718
H            3.31490427812595        1.30185878258818       -0.15206040677200
H            3.35559959141885       -1.16948562265109       -0.09191400708922
H            1.25033406312101       -2.43382980376342        0.00109013197973
