23
 energy: -27.563031774696 gnorm: 0.000218425197 xtb: 6.7.1 (edcfbbe)
Cl           0.93155546772417       -0.38116710486067        0.45343272819129
C            2.64856027620233        0.14454957360570        0.25894923096683
C            3.57057619266152       -1.04616986796915        0.49391247031552
N            3.10017595408687       -2.23054769682593       -0.26222060404570
C            3.45886477214231       -2.19169147676522       -1.70947424000845
C            4.93999969913042       -2.38811198109364       -1.98467451015347
C            3.46814985593486       -3.51647187126781        0.39348916578587
C            2.53503253401760       -3.83416109177159        1.54865300172689
H            2.74566379821389        0.56415795925637       -0.74131955363176
H            2.84150956134519        0.92444521831611        0.99396080432717
H            4.59028275762485       -0.79544573238209        0.19955723084192
H            3.56402761209768       -1.29707313764123        1.55515402317888
H            2.06439513059975       -2.13664940082488       -0.19962730503746
H            2.88867940863218       -2.97807625512714       -2.20799905093156
H            3.12969866182718       -1.23241537203126       -2.10986902025604
H            5.29285396434399       -3.35513446892883       -1.63981972417977
H            5.09597257774762       -2.34529244270545       -3.05907157257972
H            5.55118901401463       -1.60978472172730       -1.53746472127934
H            3.39556325672730       -4.30892623076816       -0.35288498812557
H            4.50280308799346       -3.45283037197362        0.73311983434418
H            1.50757681103408       -3.92535097182710        1.20416116287534
H            2.82354511651320       -4.78393732021060        1.98987470043365
H            2.57394448938460       -3.08271523447632        2.33217093724134
