62
 energy: -64.657170070435 gnorm: 0.000152100988 xtb: 6.7.1 (edcfbbe)
C            1.87346346840246        0.64687759196554       -1.02568860206444
C            1.48498131995383       -0.06262914179793       -2.31739314975547
C            1.76493286872090       -1.56614023407186       -2.28920220938570
C            1.01173891704056       -2.34305227924061       -1.20739064216677
C           -0.51258438259535       -2.23779234309820       -1.27926450889163
C           -1.13501872973173       -2.75227633257599       -2.57875353630470
C           -0.86335807818485       -4.22658052924019       -2.88684448904386
C           -1.29699199709105       -5.20516844654441       -1.79303319340988
C           -2.77007024130636       -5.11304952063716       -1.38992706336138
C           -3.76856951679298       -5.39834674321490       -2.51438690189606
C           -3.73066018823751       -6.83385092405674       -3.05405927908770
C           -4.13635799276577       -7.90894565323428       -2.03557707906284
N           -5.51710364511465       -8.46462814877300       -2.15656668127134
C           -5.75000951157596       -9.06838424698795       -3.51185233374984
C           -4.64084696992568       -9.96097959007294       -4.06630489913559
C           -5.13883509574880      -10.65116702586675       -5.33415246237092
C           -5.73143341495735       -9.55784490218085       -1.14376272145234
C           -5.00938377221441       -9.44642386111850        0.19271191457891
C           -6.55027549420757       -7.39222645633598       -2.00161015070728
C           -6.67857228051896       -6.75769411327502       -0.62618207406891
H            1.25067648559345        0.32346520889441       -0.19540929258378
H            1.75384334785547        1.72197605024825       -1.13702742881742
H            2.91264429191960        0.44280434892836       -0.77736383037230
H            0.42894519849611        0.11652905111429       -2.52801001573921
H            2.05635565073220        0.37049702403040       -3.14177624118975
H            1.52735179321551       -1.98462603294248       -3.26975369772750
H            2.83496713342640       -1.71627983669817       -2.12567603067938
H            1.30735195239412       -3.39276325008466       -1.27169035542888
H            1.32949481454166       -1.98403515752350       -0.22694431662756
H           -0.93357645342086       -2.78402733067693       -0.43170826474429
H           -0.80341772642235       -1.19321860868858       -1.15684755259695
H           -2.21372505301291       -2.58187332428817       -2.53428145788688
H           -0.75689031696148       -2.15980313332214       -3.41316729968761
H           -1.36197244764501       -4.47945348195292       -3.82608741465227
H            0.20614752786891       -4.36418834028439       -3.05195093862861
H           -1.06643069667275       -6.22090342890350       -2.12470094642167
H           -0.69743842039060       -5.02323641485934       -0.90035246655536
H           -2.93610787503065       -5.79654487243957       -0.55202300328633
H           -2.96868446013618       -4.10812048134791       -1.01729048972742
H           -4.77008140918273       -5.15001690629818       -2.15841137009438
H           -3.55276583638986       -4.72742590997800       -3.34574090549650
H           -4.34444337410786       -6.88598085391927       -3.95259878986360
H           -2.70761123382329       -7.04176300119177       -3.36823313542700
H           -3.45606734382022       -8.75731724307957       -2.10361872317981
H           -4.04204569771864       -7.48742768209233       -1.03685891180174
H           -6.67308220600469       -9.64996476660573       -3.44697267004671
H           -5.92577199509150       -8.26057320393580       -4.22371446200738
H           -3.76056267883840       -9.36863729331531       -4.31458185726237
H           -4.34551635449435      -10.72678959898909       -3.34755236861464
H           -5.43261088525580       -9.92046617718509       -6.08303191670296
H           -4.34974933317667      -11.26757114459939       -5.75339773277543
H           -5.99218437431119      -11.29007261713464       -5.12158109555686
H           -6.80747767038235       -9.61985634290076       -0.97148734060084
H           -5.41462144626838      -10.49460953719978       -1.60342443833942
H           -5.21288979252018       -8.52093394071049        0.71934083567176
H           -5.36605733134645      -10.26232533058581        0.81761251810346
H           -3.93502662700915       -9.56658512776277        0.08919025279413
H           -6.31706234424052       -6.61607641457226       -2.73118479917137
H           -7.51376162052560       -7.82995489467128       -2.27356323206307
H           -5.74511199232098       -6.32752367334300       -0.27581201564226
H           -7.39877281819511       -5.94651617157910       -0.70666057317476
H           -7.05892564406486       -7.45358725714370        0.11496383660739
