35
 energy: -44.607122514193 gnorm: 0.000544915552 xtb: 6.7.1 (edcfbbe)
C            1.95356487175319       -0.55479775667137        1.23186242810428
C            0.96676776484875        0.16930105377839        0.36838586251502
C            0.20940840224610       -0.46068680104002       -0.51895834432420
C            0.97298054125582        1.67814045773503        0.47158938526297
N           -0.07559609091295        2.27133506006131        1.37678845944301
C            0.13968513104995        3.74002714928249        1.41666764423155
C           -0.82930668080965        4.62721527894006        0.96261473924747
C           -0.64738945184014        6.00286347704050        0.99957659691351
C           -1.70655838604684        6.93284032809497        0.50619321489731
C            0.54663366254770        6.49890493432548        1.51005612237874
C            1.51935131744199        5.63615287036847        1.96306483120451
C            1.33836801476919        4.25718472369090        1.92519512630533
O            2.32065158694903        3.42515221704407        2.37541144680794
C            0.02622225393376        1.74035465872205        2.75221276796742
C           -1.40715987248049        1.90286506913158        0.86648262466112
H            1.80245365471654       -1.62833227549488        1.16905359459045
H            1.89843380206764       -0.25294216447922        2.27505547039829
H            2.96344139975697       -0.33679309715296        0.88312567825049
H           -0.44756111197498        0.05355734039881       -1.19985974402354
H            0.23821966764496       -1.53134022597601       -0.61724757268658
H            1.94470949221903        1.99629711092899        0.84805460833647
H            0.81251319260610        2.12220630701157       -0.51369093674731
H           -1.76348023187101        4.27116635240034        0.56502102510222
H           -2.03260064974509        7.59071917037077        1.30983221717666
H           -1.31313524794097        7.56174579071050       -0.29029356022853
H           -2.56942374171165        6.39233487979351        0.12844168268165
H            0.71313106255997        7.56341959828304        1.55121767328703
H            2.44680077828037        6.02557353213256        2.35791917504050
H            3.07274207371758        3.94382298364660        2.68997792110771
H           -0.68839709132936        2.25903138200889        3.38971539378822
H           -0.20093521032018        0.67677185355763        2.75384244721129
H            1.02771227767382        1.90028825391126        3.14270474494319
H           -1.53881925232259        2.25660423174451       -0.15369007896721
H           -1.49159934287167        0.81742934639042        0.86825524849911
H           -2.18457858584872        2.31549690930987        1.50623210665195
