52
 energy: -61.451233860041 gnorm: 0.000245019658 xtb: 6.7.1 (edcfbbe)
C            1.82768063340960        1.09735998259225       -0.22746486526053
C            1.71527838058274        1.13671772668756       -1.74654497512423
C            1.82313259347614       -0.24282789686930       -2.39750299441072
C            0.73641288475856       -1.23844667450029       -1.98618288999514
C           -0.69519825560041       -0.79640208572701       -2.29554871350583
C           -0.98156532258592       -0.52093865452179       -3.77322337807896
C           -0.72766043750883       -1.70153459366207       -4.71285887650644
C           -1.52733090740353       -2.96665158683299       -4.39467099041181
C           -3.04728763889310       -2.78975551973697       -4.42343378989491
C           -3.61032930600970       -2.33427254488588       -5.77208472407673
C           -3.28674785834738       -3.24230790515672       -6.96721145668201
C           -3.56151718781558       -4.74074458843028       -6.81543452482146
O           -4.89102232763348       -5.15894275582691       -7.16186813328812
C           -5.89757317109696       -4.81132292541171       -6.30696111888486
N           -5.88062330192588       -5.66134744887025       -5.07987988470026
C           -6.09934286578803       -5.13278369172409       -3.87178458189646
C           -6.07244072696828       -5.92237864501130       -2.74063890530886
C           -5.80836851002539       -7.28111724755177       -2.86670933338965
C           -5.58159672178722       -7.80609832496748       -4.13372978162041
C           -5.62648591015755       -6.96663308498110       -5.22633222071049
H            0.98115166964530        0.57969950527480        0.21698259460056
H            1.85310692100780        2.10756781691713        0.17398102368473
H            2.74010211790588        0.58723585225292        0.07357002332395
H            0.77396402741174        1.61097462012434       -2.03075171335952
H            2.52152000582033        1.75917302042745       -2.14185767285133
H            1.81044434235275       -0.11968384407602       -3.48251213929803
H            2.79108175456107       -0.67579243895042       -2.13288859358585
H            0.93813988779368       -2.18981872658145       -2.48385440001307
H            0.81067453384706       -1.42082388537760       -0.91252336051582
H           -1.37804752184037       -1.56787336207957       -1.92972821840673
H           -0.91626016258084        0.11292632701931       -1.73407915857453
H           -2.02038751491637       -0.19498958065642       -3.86759796275456
H           -0.35949917574962        0.31137261143401       -4.10549063444459
H           -0.94297455104188       -1.38078540250876       -5.73434497328694
H            0.33153337076682       -1.96016052195901       -4.67995354785174
H           -1.23881119699636       -3.74462560882609       -5.10545819464833
H           -1.24822322095486       -3.32168091311984       -3.40103141702170
H           -3.51080126556350       -3.73631261157976       -4.11944918022001
H           -3.33149264506653       -2.04906003757423       -3.67425977092530
H           -4.69052654768972       -2.19184319973231       -5.67152451673873
H           -3.19990924672802       -1.35045424857153       -6.00170345575010
H           -3.83224746634531       -2.88576773218968       -7.84302336758818
H           -2.22427018824169       -3.14064425877633       -7.18857454453468
H           -2.94667123035285       -5.28828673698267       -7.53155876109141
H           -3.31232472374317       -5.09201690260681       -5.80795117018218
H           -5.86410627700800       -3.76630586324695       -5.98046897874675
H           -6.84303249155271       -5.00553320820818       -6.82904173843501
H           -6.29457636621596       -4.07154183935254       -3.81955420382905
H           -6.24960859856870       -5.47634250820222       -1.77507498860574
H           -5.77786461406643       -7.91651198629887       -1.99540099258896
H           -5.37384460908190       -8.85474459616715       -4.27433829924059
H           -5.44844305952435       -7.30626127433639       -6.23765154803353
