26
 energy: -26.688683900029 gnorm: 0.000537497511 xtb: 6.7.1 (edcfbbe)
C            1.46032695081494       -0.07504066637782        0.18699110917942
C            0.94747853445891        1.32069954005708        0.52104702385478
C            1.04701525832858        2.31069720373859       -0.64570744812433
C            0.42095113087426        1.90927989445812       -1.98453983218095
N           -1.06187347283820        2.05314703926831       -2.15920450592208
C           -1.50930574637956        3.41471234797492       -1.81650365611132
C           -1.36795680499171        1.80004056684605       -3.58203403772746
C           -1.80576341663404        1.07682533589587       -1.34509167230204
H            0.80250002651690       -0.60446336416227       -0.49871161287762
H            1.52667546756205       -0.66657838204043        1.09535570562151
H            2.45347544402523       -0.02232380135244       -0.25193622271620
H           -0.06726429202275        1.25605878705065        0.91577129554754
H            1.56297753231000        1.72835397434167        1.32440288585940
H            0.68585730507238        3.28729925934952       -0.32392547713041
H            2.11078259909170        2.43353587700493       -0.86314145590400
H            0.87719368398249        2.53208612476231       -2.75728472351847
H            0.67650851077735        0.87018928927997       -2.19749548029059
H           -0.91922999797359        4.15258334607595       -2.35758268821118
H           -2.55697746777047        3.53928066979191       -2.08591195974363
H           -1.40829346832770        3.59392727775455       -0.74859088955325
H           -1.02024158148340        0.81049701880393       -3.87393550607917
H           -2.44229078955006        1.85336949722605       -3.75038270737207
H           -0.88216102524012        2.54092089818696       -4.21472468432558
H           -1.47959775033277        0.06510166587344       -1.57679902091558
H           -1.64603374315489        1.26375058654057       -0.28720536466262
H           -2.87171288711552        1.15474001365152       -1.55265907439412
