29
 energy: -29.854397044779 gnorm: 0.000429746523 xtb: 6.7.1 (edcfbbe)
C            1.41517078391749       -0.00143336137016        0.36355686461209
C            0.88386143495983        1.42678785808241        0.38667408774369
C            0.98601634729237        2.14514970240526       -0.96414669022097
C            0.35717161165229        1.46773397434372       -2.18581025653048
N           -1.12187653535745        1.58984519426837       -2.39692561339224
C           -1.59574686304532        3.00737581176993       -2.35522831049041
C           -0.93611071840884        3.95178138587749       -3.34718483077165
C           -1.43237532553126        0.99448415511872       -3.71237692454924
C           -1.86899476405860        0.83186523707862       -1.37641770961610
H            0.77152437499830       -0.67286054149620       -0.20046438253261
H            1.47536797009926       -0.38516437405959        1.37768596232543
H            2.41305905632265       -0.03161246177771       -0.06652401516597
H           -0.13464965604271        1.43354575686825        0.77620597687126
H            1.48584130390022        2.00458584587691        1.08980764373154
H            0.62592901225807        3.16800567450116       -0.85539590074703
H            2.05044672297844        2.21637060493249       -1.20117635375751
H            0.82921918637714        1.88474735654731       -3.07656928889207
H            0.59139516482161        0.40255601683979       -2.15711375038765
H           -2.67208674093848        2.99053460130001       -2.53997467113902
H           -1.43872817546554        3.37885069539891       -1.34162268691913
H           -1.12773974884234        3.67012521489119       -4.37819871438530
H           -1.36432538182670        4.94010011945120       -3.19880047320009
H            0.13514527680528        4.03534349977170       -3.19120625245186
H           -1.17452789059532       -0.06301931176313       -3.71265466036764
H           -2.49504240165700        1.09359473182035       -3.92645557095269
H           -0.86894091131591        1.48504218071876       -4.50206000567922
H           -1.51285541283345       -0.19511349682123       -1.33468220593448
H           -1.74616061629518        1.28544120783405       -0.39746221808284
H           -2.92975710416864        0.82130672159117       -1.62120904911793
