23
 energy: -23.131753872797 gnorm: 0.000497798661 xtb: 6.7.1 (edcfbbe)
C            0.70124769632327        0.26527399129640        0.05113632453098
C            0.57850009323774        0.48168778130568       -1.45024506296490
C            1.21923879401743       -0.63948302267288       -2.26962274058745
P            0.47101691651605       -2.29349489476238       -2.06210924012863
C           -1.32987099262289       -2.19887833440632       -1.91932082366402
C            0.86357115846809       -3.24713936709050       -3.54941354910437
C            1.16131584612985       -3.20194811698283       -0.65569137457728
H            0.09942502678580       -0.58083365908438        0.37904058534625
H            0.35155230032867        1.14618549932536        0.58225104811074
H            1.73708386222732        0.09250496652321        0.33364224693296
H           -0.47232938130048        0.59093650871523       -1.72463887627865
H            1.08118389926426        1.41247646800196       -1.71830509912703
H            1.14913015141095       -0.40452939044466       -3.33651529290337
H            2.27979413610920       -0.73438623693406       -2.01715578568661
H           -1.73641407523980       -1.67343891775266       -2.78291445596284
H           -1.73831925162423       -3.20868279169248       -1.89147791120452
H           -1.61708275424608       -1.67287378921093       -1.01090694357726
H            1.94286874976169       -3.27990452056400       -3.69380768076898
H            0.48800497731283       -4.26416332917724       -3.44415716403413
H            0.40166574247117       -2.78482475059031       -4.42067657629866
H            2.24508072545375       -3.25419328224641       -0.75835005452635
H            0.91667896470818       -2.71824980216984        0.28725740654171
H            0.75484741450717       -4.21334100938618       -0.65453898006775
