29
 energy: -46.960929492061 gnorm: 0.000700731158 xtb: 6.7.1 (edcfbbe)
C            0.80799750230603        0.38123363873846        0.21128418254064
C            0.73823764883434       -1.13150769786846        0.07740909430080
O            1.17001516926335       -1.76677427657979        1.28896480773402
C            2.43373365615973       -2.07971928495833        1.41671727203270
O            3.30282021343742       -1.92720950700684        0.58081509894725
C            2.75089472327067       -2.70556024154414        2.74773270334524
N            1.94935754517135       -3.14509223310816        3.63019281369041
O            0.61601777692567       -3.05060656103346        3.44046188115603
C            4.22373571701402       -2.84754115268246        3.06771872722340
N            4.88238800174240       -3.69169159369052        2.09745593820208
C            4.78197270899087       -5.04900908964380        2.03288156559650
C            5.46044782467711       -5.44970597339959        0.92346113833014
N            5.95613020955809       -4.32885084564793        0.32519266621464
C            5.59394626753131       -3.27927340596521        1.05189277212439
C            6.74178164761270       -4.30542383627221       -0.87874776555470
H            0.21411771680373        0.71082581084732        1.05940275332357
H            0.41830409704307        0.84029761079349       -0.69173738674835
H            1.83687249048058        0.70419149775443        0.35213602585976
H           -0.29042376270393       -1.46641919474090       -0.06288502114783
H            1.36666638264162       -1.47858650547836       -0.74823236638219
H            0.20619757482260       -3.42461263942597        4.23987005331067
H            4.69478861744465       -1.86182646442657        3.04451005162563
H            4.32297662517681       -3.28298330176055        4.06415345405621
H            4.24830954577116       -5.62038935729280        2.76465325162613
H            5.61975010634703       -6.43211120142301        0.52810065094533
H            5.81341301384768       -2.25520775410467        0.82022104809242
H            6.86018726727047       -3.28016741470342       -1.22155613134133
H            7.72665627752170       -4.73824442325327       -0.69599286876199
H            6.24668743503370       -4.88638460212597       -1.65661641034585
