53
 energy: -76.925817126941 gnorm: 0.000276444423 xtb: 6.7.1 (edcfbbe)
C            1.39757429422717        0.00282365684672       -0.09033147888882
C            0.97366831218242       -0.61607753004362        1.23615150447437
C            1.33908339497083        0.24245272639263        2.44953150885630
C            0.65829757892086        1.61843231124515        2.46121629595255
N           -0.77857199418154        1.52519384273513        2.34523381465579
C           -1.73547756940768        1.52559174676387        3.28140261262966
O           -2.90130754490081        1.32988619957410        3.02357887226876
C           -1.31071874498782        1.81515962972943        4.74297814280697
N           -0.55721274641441        0.74376822511741        5.34449164689003
C           -0.95921985611872       -0.53212955279391        5.44444087596117
C           -2.21436983952942       -1.05671493339618        4.88407941475513
N           -0.01838701096421       -1.25540370275529        6.07197091187395
C            1.04597208749828       -0.42408114410125        6.37303852291066
C            0.69181072122704        0.86018248940444        5.92581481300698
C            1.54411203916224        1.94354167490580        6.09803504044835
C            2.76076943662867        1.69884201875463        6.70103458442977
C            3.12806101148061        0.41676498884220        7.11312286589046
C            2.28329238999474       -0.66346466695536        6.95904964302454
C           -0.10177154178088       -2.66446114870256        6.37576510719030
C           -1.28857547621183       -3.01236959525655        7.31722072591190
O           -2.23747947244634       -3.58621669845420        6.83459077067887
C           -1.21696935810481       -2.62955656125120        8.72844203190925
C           -0.14734690468300       -1.93848853050224        9.30458825777645
C           -0.17107089033778       -1.62332911953488       10.64908160842052
C           -1.25069153767849       -1.99203930675917       11.43881229449518
C           -2.31812374361961       -2.67808379530309       10.87883952324952
C           -2.30333892970835       -2.99313446338622        9.53604628150790
H            0.84579285062412        0.91438477689045       -0.30558379403452
H            1.21199927826542       -0.69677359144636       -0.90053910449331
H            2.45948381759689        0.23578520479888       -0.07987323022071
H           -0.10241634866523       -0.80496995965916        1.22751490152460
H            1.47055087918459       -1.58181419998608        1.34691743244650
H            1.07468119351331       -0.30392764481361        3.35882872504708
H            2.41779090882307        0.40505020370683        2.46579169139919
H            0.92646526676843        2.14754653549321        3.37643395717734
H            1.02407946657911        2.20679410959036        1.61762278439154
H           -1.12836411844408        1.35181382459681        1.41091756255919
H           -0.71968640891782        2.72978762779728        4.78486788940784
H           -2.23901310469521        1.97456231475379        5.30142939488241
H           -2.99742940986671       -0.30097024052099        4.89517257509140
H           -2.06519431320365       -1.33483028592274        3.83802473061436
H           -2.55964854485544       -1.94070066472789        5.41235692696873
H            1.27609011479503        2.93983087225622        5.78557735659626
H            3.44833903572293        2.51525180610996        6.85207005957569
H            4.09616322682245        0.26815028366727        7.56356062705302
H            2.59067785021813       -1.64838215754561        7.27267388678437
H           -0.26255688407493       -3.22864510085193        5.45110845388501
H            0.83678967992462       -2.98559959393784        6.82621585203690
H            0.70750416387012       -1.64232846753033        8.71902795306563
H            0.65975762320161       -1.09148291671630       11.08717334123411
H           -1.25668038404608       -1.74624733088978       12.48941302895094
H           -3.15783729663042       -2.96757013102241       11.49090360822864
H           -3.12255664765942       -3.52946403516216        9.08181719674235
