34
 energy: -50.160634428041 gnorm: 0.000416312375 xtb: 6.7.1 (edcfbbe)
C            1.29571266375619        1.42987485989471       -0.64534149269588
C            2.50679593532292        0.90328930953147       -1.39616244270966
O            2.12272040061407       -0.07994172108466       -2.38003899548346
C            1.95599288311306       -1.31596744540175       -1.98421901263919
O            2.11885839553505       -1.76475693643212       -0.88159424160506
C            1.49238796108014       -2.20285143980970       -3.16330391820032
N            1.60810242850098       -3.58604283297614       -2.79797968333517
C            0.90029591901604       -4.19881713313500       -1.83787354297798
C           -0.25879959055757       -3.62987765158580       -1.12628451130207
N            1.38414909891826       -5.42634552580723       -1.62765504543579
C            2.45501282275771       -5.62988858679164       -2.47728601986146
C            2.60880563572916       -4.44529014665890       -3.21814846384365
C            3.61220259506644       -4.31436804305994       -4.16845319607701
C            4.44594651134968       -5.39891677942568       -4.35320437748103
C            4.29026746481021       -6.57765365409568       -3.62115778561182
C            3.29710068652725       -6.71676942807335       -2.67317499073545
C            0.88463154415678       -6.37125349762584       -0.66257045645023
H            0.55717853096353        1.81823877049435       -1.34211456268065
H            1.60762603965698        2.23193893390315        0.01611433225778
H            0.84454171241351        0.64194106514926       -0.04681409941290
H            2.98852057905917        1.69265446834842       -1.97388933342533
H            3.22340203775778        0.44823054836195       -0.70690535227286
H            0.45744170600232       -1.94328289678630       -3.40450985800809
H            2.10917561920788       -1.99710835885978       -4.03775224607430
H            0.08187180911939       -3.09236080601851       -0.23962123279885
H           -0.79437923275861       -2.92364098735420       -1.75563143895933
H           -0.94292869121103       -4.41407797921567       -0.81308286455524
H            3.74459048590192       -3.41162580146248       -4.74183650839010
H            5.23800337729437       -5.33622262786092       -5.08192655950072
H            4.96421869272936       -7.39932284714637       -3.80275220851564
H            3.18559438853663       -7.63357649341210       -2.11824403338987
H            0.75101434946897       -5.88802377920579        0.30472706155236
H           -0.06779770487479       -6.79235398810418       -0.99012164009610
H            1.60318294505023       -7.17910056827870       -0.55290127928797
