28
 energy: -72.544807512568 gnorm: 0.000827666549 xtb: 6.7.1 (edcfbbe)
F            0.60603629909675       -0.46078768942224       -0.50746716017680
C            1.90352709882027       -0.11789551163029       -0.59191432705226
C            2.01159068113478        1.40303405646064       -0.90483279089364
S            2.14887254139831        2.98142422434079        2.55237405524305
F            3.38686606403992        2.16950824223043        1.83848433266921
F            1.38842879508887        1.43070020378064        2.64243684662754
F            2.62947882973430        2.76781752794088        4.07298644607249
F            3.03967632650231        4.37945146607549        2.44864605245899
F            1.49618223324658        2.14682449326628        0.09390121955184
F            3.28715440328565        1.74798000459369       -1.03872199138738
F            1.37051681403726        1.72053194558211       -2.01306440761892
C            2.68107038651320       -0.54173111674016        0.64867511895414
C            2.49714465230213       -2.03189595320882        0.95399647891759
N            2.89475425662259       -2.88104482728363       -0.15827066476639
C            4.16148971948926       -2.97890830053738       -0.55100717608830
C            4.47375624202114       -3.74404843742187       -1.66787055348694
C            3.43905684110595       -4.38263408092194       -2.33088519050242
C            2.15061191337552       -4.22676159129972       -1.80800620306518
N            1.91461488501904       -3.49044038003245       -0.75062127899774
F            2.38499564531617       -0.76994807556546       -1.69583436053538
H            3.72849572981876       -0.27012643445582        0.50702653225683
H            2.29362003302267        0.01354217105951        1.50440321915202
H            3.08442837901160       -2.28264292918991        1.83989762080203
H            1.44091154572880       -2.24165261877962        1.14381995470953
H            4.91547460297620       -2.45276330520849        0.01747669075701
H            5.49763422049678       -3.82494289265347       -1.99926250661189
H            3.61188322683625       -4.97889531031323       -3.21274437680978
H            1.28116763397027       -4.69666488067097       -2.24464158018263
