46
 energy: -52.440248599855 gnorm: 0.000286482288 xtb: 6.7.1 (edcfbbe)
C            1.32451576112798       -0.78597641659890       -0.62184649746776
C            0.00373161275657       -1.54539100754857       -0.59790428916843
C            0.09420849922163       -2.91041607488195        0.08851784276814
C            0.51072623711598       -2.86501052893770        1.56142733033431
C           -0.50248704256034       -2.18144315586203        2.48168368096256
C           -1.73377415492364       -3.04532393906392        2.77927613848717
N           -1.40593769628139       -4.24428838404986        3.54215956680836
C           -1.67444150250109       -5.49044080976283        3.18079361206525
C           -2.49380979162774       -5.78659628106952        1.96076080600805
C           -1.64231843806744       -6.26238007429374        0.77098649610998
C           -1.33482847435999       -7.75374804719088        0.83972920272631
C           -0.57086960658374       -8.14429236475151        2.10099422321970
C           -1.35654211964002       -7.89855782790658        3.39181878980264
N           -1.24125322339804       -6.53057076128989        3.88130979431913
C           -0.56999982765322       -6.37380656386885        5.16129517314590
C           -1.00582557410665       -5.06997875376129        5.80253380028700
C           -0.73742296583132       -3.95836639644620        4.80562572109790
H            1.62228213364977       -0.47232560400341        0.37548493142520
H            1.22807371056845        0.10524585433178       -1.23595350043676
H            2.11360227960625       -1.40481241689710       -1.04237980062309
H           -0.76024938739629       -0.93017206680133       -0.11858591600936
H           -0.32190009058829       -1.71513078569551       -1.62608558559102
H           -0.87305301791935       -3.40902960934140       -0.01107888832057
H            0.82862628607058       -3.51422159559904       -0.44918403655303
H            0.68700779822329       -3.88662155725136        1.91216597274044
H            1.45996384269470       -2.33566408531260        1.63603091588292
H           -0.01287606531955       -1.88667260060134        3.40947334354910
H           -0.85978670012516       -1.26746169800040        2.00858885334665
H           -2.45351250606649       -2.46010043590564        3.36131094616447
H           -2.19098034048376       -3.30518297893738        1.82988116960362
H           -3.07562107690229       -4.91468110830063        1.67409703805154
H           -3.21449922011994       -6.56816593380069        2.20920535048493
H           -0.71225384683154       -5.69420140647317        0.73076947336157
H           -2.19207322997239       -6.06291750545387       -0.14886116929616
H           -2.26787356444851       -8.31904024020564        0.79508466120143
H           -0.74334255453379       -8.03247871874453       -0.03251900215852
H           -0.33819909883490       -9.20798198475796        2.04774088814052
H            0.37609903699627       -7.60301078115851        2.14755237654348
H           -0.95893083128256       -8.54475113147400        4.17388787241827
H           -2.40708405510676       -8.16832041709088        3.24885982815797
H            0.51585492758842       -6.39262544363751        5.01745081826631
H           -0.84226851865052       -7.21726722609411        5.79859248451907
H           -0.45436538691793       -4.89445438846300        6.72378831984609
H           -2.07036203888151       -5.11139891233586        6.03973359524277
H            0.33953226586886       -3.85746613697505        4.63980745797613
H           -1.11865244358054       -3.00721169776426        5.18157021054144
