25
 energy: -32.993403027569 gnorm: 0.000704099860 xtb: 6.7.1 (edcfbbe)
O            1.14746735566388       -0.08678765858935       -0.15620201043987
C            0.49080204586386        0.98967538617181       -0.79287262872791
C            1.12806576074280        2.31438993850976       -0.36346283895380
C            2.66641515311334        2.27257457993138       -0.42320070461024
C            3.15619776926865        1.97763559895168       -1.79943665196763
C            3.30198200194576        0.65982607380425       -2.24592496627083
C            3.72901774361315        0.42150711968821       -3.54111639423961
C            4.00829471676402        1.48918018196752       -4.37306863476113
N            3.86367977256418        2.74503034275006       -3.94234165712994
C            3.44783734153185        2.99432414843918       -2.69326205826456
C            4.17081880665951        3.86124404237234       -4.80995118282450
H            0.51166342095772       -0.76361195234215        0.09055905820652
H            0.57303168767923        0.86706661731084       -1.88507345435941
H           -0.57255726829866        1.01743381231275       -0.54044339319197
H            0.73910884631787        3.11429982883071       -0.99436249809027
H            0.84996325996951        2.52228894992342        0.66924200389800
H            3.05508866350628        3.22999085946839       -0.07692467415309
H            2.99682460460120        1.48365441759346        0.25178882966084
H            3.07018888881016       -0.15142240791142       -1.57124761409860
H            3.85091084431850       -0.58416665980307       -3.91044212505521
H            4.34962564685931        1.34295471111191       -5.38662287198851
H            3.35400420362952        4.03232359322125       -2.40728073277362
H            3.34168469250612        4.56878058670705       -4.82146775082254
H            5.06098162732563        4.38038231459326       -4.45052858766355
H            4.35397241408636        3.51686557498637       -5.82514646137897
