26
 energy: -33.792459188305 gnorm: 0.000558922079 xtb: 6.7.1 (edcfbbe)
O            1.04553154458872        0.69815920413282        0.48116602025694
C            0.60784587630647        0.73834153438333       -0.85656324384016
C            1.25945151948786        1.91467946018289       -1.59509267845397
N            2.74782074642800        2.01172320685733       -1.48824218446816
C            3.34859853497098        0.68009899553218       -1.68551241363005
C            3.21825647666554        2.96236356476879       -2.53870264001553
C            4.69398135113221        3.35008744283463       -2.36687235558916
O            4.93603759578512        3.87625229526935       -1.09177040515468
C            4.61013714119910        2.94833991601427       -0.08872432943286
C            3.12729657350444        2.57652179300763       -0.15867459578202
H            0.44688718132703        0.15844144533873        1.00872583832771
H            0.82911268685232       -0.21163213768513       -1.36103393113254
H           -0.47465706559086        0.90212285283522       -0.91569814703133
H            0.99668688299748        1.82457440304637       -2.65122222269543
H            0.84028848207451        2.84556344940107       -1.20909552318687
H            3.09789379706355        0.03978268543691       -0.84265965124975
H            2.97161750049206        0.23911025012089       -2.60676540352210
H            4.43043520993152        0.75121434908908       -1.75365757618189
H            2.61615737475576        3.87022668489722       -2.45921314120649
H            3.06542737232554        2.51673352473547       -3.52254039750668
H            4.93484760000424        4.14233889361098       -3.07833405597873
H            5.35652209172698        2.49598529548117       -2.56811850353808
H            5.25416161648529        2.06061634034246       -0.15361065529650
H            4.80530547229768        3.44542579410613        0.86289555057497
H            2.86197661313661        1.85995339904402        0.61746444680468
H            2.54647982405190        3.48891535721481       -0.00853780107227
