45
 energy: -67.486717418102 gnorm: 0.000543858211 xtb: 6.7.1 (edcfbbe)
C            1.82120857708218       -0.68286994028697       -0.15836771797775
C            0.55932086455192       -0.96438936448587        0.64765939643174
C            0.68193352975440       -0.48717273823129        2.09145052827688
C           -0.50878854332364       -0.88732382211195        2.96082429598655
O           -1.25501698952987       -1.80156070562549        2.81637283019122
O           -0.64852183987346        0.02563939177167        3.95800660577850
C            0.38253827047981        0.99728280481320        3.86394905028582
C            0.75528738564819        1.02148317298853        2.37763076333768
C           -0.29389300635734        1.78339789014241        1.53601062181021
C           -0.63551087072834        3.11714408675772        2.09160360258884
C            0.05832970507507        4.29562929626460        2.04613710065798
N           -0.66050765812441        5.23394560003095        2.72031104697052
C           -1.77134401679883        4.65475793454504        3.16363077010729
N           -1.78063513001014        3.37248915805012        2.80412064242750
C           -2.82563142209129        2.42790348888466        3.10771628453251
C           -0.32138459318453        6.63889698393972        2.84785087611721
C           -1.03194532887390        7.44689007296961        1.78492603235648
C           -2.14139093084733        8.21793394541359        2.10763660431050
C           -2.79832022493739        8.94545752856256        1.13247411310540
C           -2.34696919775234        8.89259010882781       -0.17828271543692
C           -1.24185467328411        8.12364560443545       -0.51586790813334
C           -0.58977121363987        7.40467282492431        0.46725452411893
Br          -3.25040533448626        9.88096998617110       -1.52587337744786
H            2.01889298375485        0.38492811546357       -0.22662528106997
H            1.71255719904405       -1.07270810253454       -1.16613285837084
H            2.68307714953733       -1.16229298915873        0.29843200137547
H           -0.30380566907144       -0.50870471632295        0.16158811521101
H            0.37685586279151       -2.03955652892355        0.67725815507983
H            1.56372914434075       -0.96655217266603        2.53487289457880
H            1.23745442323291        0.67970690033776        4.47178247551074
H            0.00451536503490        1.93808278530998        4.26581560848595
H            1.74666472828536        1.44438145768062        2.22213160940926
H            0.09946290751080        1.90891166046741        0.52681073356624
H           -1.20052161905994        1.18077714639321        1.47542855455955
H            1.00170230344525        4.51196297105329        1.58877008699906
H           -2.54163737634019        5.14481339185334        3.72625778050519
H           -2.41696367234880        1.54149259148794        3.59673643176185
H           -3.55111830575841        2.89285146145931        3.77033427142328
H           -3.33388913595059        2.11915906399969        2.19315118906800
H           -0.61389747580840        6.98201287109693        3.84213102619854
H            0.76096833457958        6.73491891884776        2.74118388678891
H           -2.48918894715905        8.26959295893783        3.12867331937957
H           -3.65268254412876        9.55232734704070        1.38624547011079
H           -0.89442891218157        8.09537177229263       -1.53629159090134
H            0.27672589749722        6.81675978712210        0.20338214993789
