34
 energy: -48.189554888764 gnorm: 0.000280118353 xtb: 6.7.1 (edcfbbe)
C            1.44366229788569        2.10912244302487        2.07796474192894
C            0.88382642312877        1.01108939686499        1.24153912243056
C            1.18350442467167       -0.32183239643939        1.53642470156876
C            0.67383650638425       -1.33887489258520        0.76957621608467
C           -0.15238382600307       -1.07520467449334       -0.33873226780717
C           -0.45002993767485        0.27162162756621       -0.65652975145668
C            0.07106196652221        1.27451644523165        0.14915064690807
C           -1.30347807735555        0.64874439024590       -1.81735513302801
C           -0.67808656846926       -2.15139123386246       -1.15097714622020
O           -1.25985413297560       -2.04294119818969       -2.21045883416587
C           -0.46573296805707       -3.61072893256814       -0.61347349370097
N           -1.29594536579237       -4.47884358793831       -1.39000151578762
C           -2.40840831698364       -5.14475650663425       -0.96706602649007
C           -3.02620115119023       -5.64215530454685       -2.07164646352330
N           -2.29269298875746       -5.25989472184073       -3.15535712393498
C           -1.25759669599488       -4.54630052101647       -2.72119666770483
C           -2.60794272576679       -5.56641644035366       -4.52390426553657
H            0.99983245680581        3.06726367738337        1.82381616191827
H            1.27640420801156        1.90727125254323        3.13436308342673
H            2.52096618766232        2.17569181116663        1.92606813840716
H            1.82210753079556       -0.54942014524254        2.37625223038127
H            0.94031100510433       -2.35226452315177        1.02360410801957
H           -0.16376282560985        2.30143341196585       -0.08991153551230
H           -1.47598890921088        1.72098637748500       -1.83279403265951
H           -0.82362616986609        0.35532930512231       -2.75014829736540
H           -2.26226518194925        0.13409688458886       -1.78250151407248
H            0.58803043529714       -3.87074361238655       -0.74240795551681
H           -0.74403792018364       -3.68932327598053        0.43637816518047
H           -2.67565912184895       -5.22325825281136        0.06674407238828
H           -3.91899518766808       -6.22683403862646       -2.15791903016782
H           -0.49552760295716       -4.12056447670494       -3.34299893585195
H           -1.84108556221589       -5.15931320471243       -5.17855470980122
H           -2.66427345118335       -6.64642476196908       -4.66375435212400
H           -3.57079875458853       -5.13019032112263       -4.79254233619244
