36
 energy: -59.588724297415 gnorm: 0.000726741674 xtb: 6.7.1 (edcfbbe)
C           -0.13331781000375       -0.04203654777161        0.55256307496184
C            0.20830777425319        1.43326499416987        0.57157355463589
C            1.41070228134911        1.86873445000681        0.02696245724520
C            1.73290357296848        3.21395195686065        0.04343879016912
C            0.85763544767487        4.13001546683646        0.60393018309055
C           -0.34162734759911        3.69965874403021        1.14521248229306
C           -0.67003118460782        2.35451780254001        1.12436662301967
N           -0.24341519937392       -0.51694099572727       -0.81940227701468
C            0.63199539761133       -1.38954030678400       -1.31016474739883
C            0.53259720798518       -1.84391041934580       -2.61762389630469
C           -0.46446674178499       -1.33084599116687       -3.43666117599239
C           -1.35863552805213       -0.40764078770064       -2.90365333164382
C           -1.23140479081327       -0.03232363162928       -1.58659168289839
C            1.48419457584498       -2.87423313424872       -3.16570467659558
O            2.15395552858557       -2.68007341126487       -4.14369908504751
N            1.50481233384842       -4.06695343668932       -2.48610454731033
C            0.67267479217961       -4.48577619505009       -1.43382033420601
O            0.88778997479910       -5.75645321846961       -1.18258048285100
C            1.88020657852606       -6.31820403923476       -2.03873345491349
C            2.32860854583570       -5.17216301308780       -2.95574672032128
O           -0.10193167910140       -3.78236216403435       -0.84796745864595
H           -1.08649397552930       -0.21253957851019        1.05901425468395
H            0.63683116880077       -0.62139285092532        1.06569408269247
H            2.10104441775208        1.15710331559399       -0.40424455383242
H            2.66949779395056        3.54555530503173       -0.37646422446177
H            1.11304860450658        5.17770430477227        0.62195798752880
H           -1.02372237870469        4.40919487005347        1.58624521362603
H           -1.60282715473220        2.02244313399201        1.55630500029930
H            1.41774619233114       -1.73051455969573       -0.65251144351568
H           -0.54227114077202       -1.65415362962746       -4.46345877754865
H           -2.15302933086088        0.00321298470641       -3.50577878468831
H           -1.90919920222277        0.66921780236421       -1.12243937887285
H            1.42593650874492       -7.14981889456397       -2.58168722402131
H            2.68743735580463       -6.70110998029743       -1.41008566858646
H            2.13064641494792       -5.36455392109041       -4.01295889867407
H            3.38654099585501       -4.92458442404239       -2.84233087890232
