42
 energy: -46.572893394022 gnorm: 0.000752944656 xtb: 6.7.1 (edcfbbe)
C            2.68761924274808        3.65875855778334        0.38320334929847
C            1.17380005835012        3.67152639220479        0.20060388670965
C            0.68872160445898        2.81517510430876       -0.97037485761614
C            0.91259100089346        1.32195746070456       -0.73576172538850
O            0.54788798503798        0.53313186164093       -1.87249304472606
C           -0.61191708916889       -0.26129740265362       -1.82181175830969
C           -0.42961374245197       -1.50943123311067       -0.91766699545809
N            0.57621110233486       -2.52082988775623       -1.36708915141459
C            1.93995391962672       -1.95939612473674       -1.33953077636823
C            0.51334214094908       -3.66943695236258       -0.44110194779325
C            0.28053358655451       -2.99873923343368       -2.73068078246521
C           -1.89355970328592        0.48618060876070       -1.41813441567823
C           -2.35760459721308        1.43114709816557       -2.52865590819504
C           -3.53150397941899        2.28800647284042       -2.07434681112699
H            3.04611655212271        2.68141434037581        0.69825263389301
H            2.97474832031275        4.37928699608842        1.14427710416942
H            3.18524895106335        3.92879327694752       -0.54545591731919
H            0.69063484803606        3.33662464372423        1.12227553232456
H            0.85371819577073        4.69843288731398        0.01764097394118
H           -0.37407278420481        3.00256140319290       -1.12543769174380
H            1.21588249886910        3.10228414526411       -1.88132198016813
H            1.98104475819480        1.13919317543323       -0.58318470445309
H            0.37544814040537        0.99798268957880        0.16171087916405
H           -0.74372239164433       -0.58394478064224       -2.86086550238118
H           -0.13859558287797       -1.17816969575184        0.08163013811523
H           -1.39231027854382       -2.01727259925439       -0.84415542050371
H            2.21086510070199       -1.68629570906718       -0.32131693143073
H            2.65211126880073       -2.69553921314042       -1.70713646144128
H            1.98211025612679       -1.06835261372898       -1.96470348371162
H           -0.46215187785885       -4.14956204145416       -0.49651347414729
H            1.27680456816279       -4.40091659424077       -0.70082308913308
H            0.68343318733963       -3.34141688085944        0.58294818740769
H           -0.76289503785840       -3.29931312308965       -2.80838987196728
H            0.48322794962431       -2.21715822677440       -3.45912294280982
H            0.90997638950998       -3.85571775492940       -2.96453532706675
H           -2.68564724488780       -0.23664491571503       -1.21590555764371
H           -1.72478887341920        1.05303702901034       -0.50228685608186
H           -1.52751698025558        2.06997197608879       -2.83172896977535
H           -2.65404106259893        0.84219012084763       -3.39880432294839
H           -3.25517506474283        2.90355633425797       -1.22175427334949
H           -3.85182693674182        2.94402777539760       -2.87828294592231
H           -4.37345839881019        1.66308463277575       -1.78719878648825
