71
 energy: -81.267813362993 gnorm: 0.000416016978 xtb: 6.7.1 (edcfbbe)
C            0.89559473405911        0.50217279688343       -0.61905915806555
C            1.03195669946869       -1.01407172802491       -0.69431073158725
C            1.43180957445222       -1.65170659750808        0.63732872418712
C            0.43552161187959       -1.44081168223722        1.77922998034355
C           -0.97045520635972       -1.98400028753699        1.51890790015598
C           -1.04641717456732       -3.49401289524038        1.28451090401657
C           -0.54721317106608       -4.35625734838212        2.44649927687283
C           -1.23274036469323       -4.09355330971145        3.78929359252060
C           -2.75480940416117       -4.24397027969292        3.77738138160705
C           -3.25954355079471       -5.65282308700185        3.46076296055929
C           -2.89056728866379       -6.71944594495347        4.49454845984894
C           -3.34783721623863       -6.42401564234585        5.92600198346459
C           -4.83726837904983       -6.10762365571214        6.07959215268522
C           -5.77181195301318       -7.26308298088492        5.71015425849805
C           -5.82845553392365       -8.36129946131224        6.77952079693616
C           -6.59736417867166       -7.94624115280520        8.04011844808496
N           -7.98550402569609       -8.49545306996930        8.17769375974835
C           -8.03936235762675       -9.99061672334586        8.18971341172093
C           -7.03825158830456      -10.75205951812077        9.06377114351611
O           -7.37294334282031      -10.77280148586897       10.44349060316068
C           -6.63614023349859      -10.01395449191626       11.28472274391545
O           -5.85061495098964       -9.19718170730041       10.87542879379991
C           -6.94772425852299      -10.31207643012374       12.71026592246839
C           -8.55753302458319       -7.95274900195730        9.42655916417705
C           -8.82885472271073       -8.03634440574583        7.05662995203538
H            0.06497914353595        0.79095921144901        0.02003144103376
H            0.71712782212947        0.91392237913687       -1.60983628948577
H            1.80617736104123        0.94674347263052       -0.22304623879229
H            0.09420344394492       -1.44683942212979       -1.04747394918374
H            1.79988214783541       -1.26189515290367       -1.43124012368566
H            1.58198625062783       -2.72203335707200        0.48102999629188
H            2.39274743847170       -1.23291269600401        0.94737765588911
H            0.84261142683118       -1.90885153248376        2.67811112669144
H            0.35424523212087       -0.37206930037464        1.98685225498650
H           -1.60203878074116       -1.71845842896782        2.36971335087412
H           -1.39100299267319       -1.48308752093588        0.64482876389331
H           -2.08432499645708       -3.75403317216892        1.06269189037449
H           -0.46152532875298       -3.74849728579754        0.39868951347999
H           -0.67574623115674       -5.40607826797083        2.17218550620658
H            0.52408805057885       -4.19313808678949        2.57814480028597
H           -0.80607286189813       -4.77226198637549        4.53136259786696
H           -0.99664211418761       -3.07880054520746        4.11486215435496
H           -3.13802037147798       -3.92975770216034        4.75084027817290
H           -3.17289356156613       -3.56033047975157        3.03685415478505
H           -4.34650246818691       -5.61494088061454        3.35199892078045
H           -2.85805445756951       -5.96602698766014        2.49596955359411
H           -3.30727397680514       -7.67451665628747        4.16402114295183
H           -1.80662439140837       -6.84083969358890        4.51104498904614
H           -3.08475279341989       -7.27899918951768        6.55379493037600
H           -2.78583485998388       -5.56995596434387        6.30542490822365
H           -5.01607799345451       -5.80206563469979        7.11376705416810
H           -5.07934434501895       -5.25371236745478        5.44771439324729
H           -6.77106219434590       -6.86405179387949        5.52562125338144
H           -5.42622774750124       -7.70604434848278        4.77691706351643
H           -6.24600861945612       -9.26953607424416        6.34535207250555
H           -4.80442277576325       -8.60010659062149        7.06688405947219
H           -6.04674939256070       -8.22811317361267        8.93995990051482
H           -6.69175417936365       -6.85867477775860        8.05056865464836
H           -9.04637472604769      -10.28080031803369        8.49909413598802
H           -7.88838430122349      -10.33887820384387        7.16710376190478
H           -7.07231295431869      -11.79772815762201        8.74338359666688
H           -6.01776508474642      -10.37776244841890        8.94166672416208
H           -7.93276344015306      -10.75814836445923       12.80256131738319
H           -6.20920306545816      -11.02430963887820       13.07682749590112
H           -6.86397484397434       -9.40974233262710       13.30969760603711
H           -7.92166867508848       -8.19092359185748       10.27421046872705
H           -8.63468205290471       -6.86893172659657        9.35865590030313
H           -9.55130776516019       -8.36237023744095        9.59871732024478
H           -8.85574750922587       -6.94846605729165        7.03610671994217
H           -8.43400439168105       -8.39344453138780        6.10861267185738
H           -9.84606276733175       -8.40662029424707        7.17472807566472
