43
 energy: -53.312165352321 gnorm: 0.000312495645 xtb: 6.7.1 (edcfbbe)
C            2.50969055106411       -0.59907379699299        0.05932150359521
C            1.04681277873202       -0.31811956204426       -0.03290969764540
C            0.16881441064037       -0.71187523635817        0.96999809240690
C           -1.18149534543665       -0.42627000975823        0.88643315207947
C           -1.69407271415354        0.25720154937145       -0.21140401782728
C           -0.81565867191044        0.66324539086602       -1.21309817896823
C            0.53182358790816        0.37595382521295       -1.12453701691040
C           -3.15648698614002        0.60270774323396       -0.29073731089507
N           -4.00873926132708       -0.42558887466850       -0.98291413810255
C           -3.94160790045356       -1.72195267212824       -0.22666036098045
C           -4.79751599528140       -2.81668622291240       -0.80332781190412
C           -4.28474084332714       -3.69679160259499       -1.75087815539952
C           -5.07174824998719       -4.70804784077425       -2.26993567753534
C           -6.38787241390418       -4.87599026976956       -1.85453481126727
C           -6.89062631841333       -4.00609629871861       -0.89120756774498
C           -6.10902377775686       -2.99386765881863       -0.37019075983929
C           -7.23630062764491       -5.97809644830193       -2.39574228939979
C           -5.39520814042149        0.06809638466220       -1.01599412966357
C           -3.53890826028049       -0.62324421594861       -2.36281045208897
H            2.73499661828612       -1.24499250594015        0.90305825326662
H            2.86776885281929       -1.07107457353156       -0.85376575305488
H            3.05883539629641        0.33382965781247        0.18264252999596
H            0.54619296356711       -1.23751534415538        1.83385763282973
H           -1.83459338265399       -0.72182381162113        1.69518408697648
H           -1.18158304000678        1.22749552110378       -2.05884269357424
H            1.19895800135066        0.70478550517290       -1.90676149428787
H           -3.55805626659365        0.73307023353715        0.71658359868513
H           -3.27924854979227        1.54108279973175       -0.83636795864945
H           -4.25582508433095       -1.51413091068955        0.79837927443718
H           -2.89499456996075       -2.03301520605445       -0.21714548375426
H           -3.25775060822384       -3.60568617506328       -2.07445532992230
H           -4.65379080604874       -5.38185608251686       -3.00215374271357
H           -7.90388509927645       -4.13018784178632       -0.54071519964687
H           -6.51982287906318       -2.34860331715223        0.39310392197031
H           -6.81527930266278       -6.38635696286224       -3.31023356503344
H           -7.30497789519446       -6.78267543702318       -1.66369911133667
H           -8.24656858824408       -5.62685089434125       -2.59366428224233
H           -5.44627657560671        1.00546061975068       -1.56697865958295
H           -6.03689843755407       -0.66396793441640       -1.50324404876343
H           -5.75895916330044        0.23740037521721       -0.00413159550144
H           -3.59189905624466        0.31513194420427       -2.91129842321049
H           -2.50768582760213       -0.97121578413551       -2.35649774412120
H           -4.16342252185668       -1.36165805881519       -2.86199458467291
