45
 energy: -47.820348123784 gnorm: 0.000672235543 xtb: 6.7.1 (edcfbbe)
C            0.71771449350033        0.60691950187762        0.15662847994655
C            0.78647274812140       -0.51179509094042        1.18921587103461
N            1.20494904951943        0.01478732892373        2.56363483673925
C            0.42345748749631        1.19984588257168        2.96130909826629
C            1.04169667069596       -1.02376351617235        3.60084638933249
C            2.63682638814765        0.37550176238511        2.53100220638083
C           -0.54132485322745       -1.27715317334071        1.23961155644734
C           -1.03490506741222       -1.83892981674565       -0.11492652323763
C           -0.00863180058462       -2.79980255006319       -0.72006190226864
C           -0.31366289286038       -3.30659434019038       -2.13177022849853
C           -1.49550767340329       -4.26682779323754       -2.31082202501102
C           -1.64642970905756       -5.33607269828078       -1.22209407216617
C           -2.70393181981346       -5.02378278781429       -0.16090099549628
C           -2.40744295193170       -3.86216971171651        0.79017419238741
C           -2.41375292447019       -2.47954677001552        0.12182432567438
H           -0.19207723811399        1.19232681300037        0.26199381959861
H            0.70719817773327        0.15765455267448       -0.83234122525857
H            1.57516275629900        1.27291907421094        0.18569351044914
H            1.58313866140261       -1.20789694447206        0.91203923999589
H           -0.64127389222999        0.98474716381582        2.90999274069219
H            0.67128471596944        1.47693055885564        3.98462840448355
H            0.64702701831619        2.04218574796939        2.31198122439425
H            1.50137934236590       -1.95595935230603        3.27760724114697
H            1.52716714760206       -0.70042856577575        4.52048289758013
H           -0.01003274794624       -1.19516300956255        3.81471985551037
H            3.24215412916874       -0.50794641510705        2.33572789188947
H            2.83812476826872        1.11325618725836        1.75901957672905
H            2.93476129035252        0.79663010542158        3.48979925173352
H           -0.45928302462396       -2.13203911696246        1.90878911389232
H           -1.32474848998824       -0.61774054860810        1.61773576157813
H           -1.18698177424269       -1.00767419720650       -0.80918253973335
H            0.95356730188817       -2.28512158314050       -0.79142003377768
H            0.13254223662298       -3.65033384130518       -0.05445771188887
H            0.58764518397290       -3.82333640584883       -2.47101850296712
H           -0.46061587747652       -2.44969038309660       -2.79357087021848
H           -1.34337503418297       -4.76338537930480       -3.27136458445612
H           -2.42882548364920       -3.71248503408959       -2.40262643252539
H           -0.68303977620768       -5.53060175010773       -0.74811145288904
H           -1.95203804672686       -6.26914348979032       -1.69921113468688
H           -2.83751404470352       -5.92113746085564        0.44830733245184
H           -3.65534932387786       -4.83120780778479       -0.66141585587733
H           -1.45936798243295       -4.04801981279309        1.29751358774852
H           -3.18170859355828       -3.87714378816456        1.56028186791951
H           -2.99742434163581       -1.78778297000345        0.73480475022650
H           -2.93490420308582       -2.55078857415928       -0.82909893327219
