89
 energy: -93.136594339875 gnorm: 0.002469894187 xtb: 6.7.1 (edcfbbe)
C           -1.23867785907313        6.44917398633264        2.35562251793143
C           -2.16190559255235        5.24817737684169        2.52827011358586
C           -2.26637410545994        4.38142377788030        1.27225185646953
C           -0.96060694276303        3.65857228091864        0.94161049586300
C           -1.10667717905188        2.60151564912406       -0.15489022513512
C           -1.55019537414649        3.13094384096359       -1.52598251863824
C           -0.49682728552583        4.07965957612357       -2.09744430314290
N           -0.68874651626528        4.55295927165223       -3.50051215959301
C           -2.02313513261371        5.22211374976918       -3.67122096579610
C           -2.51830011220739        6.16484606076501       -2.57487765764350
C           -3.78291924605885        6.90295071387974       -3.03715457470595
C           -4.98619682076264        6.01350813281543       -3.36439009841700
C           -5.41973656980078        5.05750756010085       -2.24824375206109
C           -5.74035626063457        5.72509437360420       -0.90973532540683
C           -6.89460698400429        6.71639291458017       -0.99784376216541
C            0.43703230701139        5.46275170568086       -3.88350219004883
C            0.57458634870588        6.82092993672455       -3.20009069763019
C            1.95566856381783        7.41817929460027       -3.50381078480903
C            2.18736425999011        7.70036679951643       -4.98809910082125
C            3.42507715133902        8.56576794419830       -5.23640695264794
C            4.74513889837881        7.94721742691744       -4.77210664172395
C            5.07695040674485        6.62989062488041       -5.46409475490047
C           -0.67889032371899        3.40604836424203       -4.48349545877181
C            0.65040899489116        2.81929006481393       -4.97718353642083
C            1.53971506151809        2.04795971317741       -3.99755069093811
C            0.90106595025710        0.80967074025326       -3.36470334163662
C            0.38227542394294       -0.23127584264869       -4.36007803313585
C            1.43725682481166       -0.79448808498497       -5.31394025132471
C            2.55860996818655       -1.53706134166994       -4.59723096000699
H           -0.20709043848658        6.13809622995550        2.20806317959128
H           -1.27418038456474        7.07577013942921        3.24254437772827
H           -1.54790747598091        7.05271798271905        1.50326433682780
H           -1.80921477261474        4.63679490666626        3.36039748630150
H           -3.16142797413741        5.60673926813423        2.78291441585063
H           -3.05111374603338        3.63655098176150        1.42398863342171
H           -2.57162990426156        5.02104570087397        0.44044302934790
H           -0.18941625756613        4.38104808798173        0.66986038889066
H           -0.61557297519850        3.14757465204600        1.84234957590262
H           -0.15391774029600        2.07836002638722       -0.26707930443963
H           -1.84538619807137        1.86659603348425        0.16999954286332
H           -1.69758705974155        2.26450667289082       -2.17165604428300
H           -2.51506558439380        3.62106850230395       -1.41651856521064
H           -0.45443049807677        4.96525940601760       -1.46533466895999
H            0.47134854545405        3.58127237002257       -2.05078030263850
H           -1.98077961248937        5.77762653139325       -4.61149650194024
H           -2.76355937621621        4.42790892253848       -3.78009492210072
H           -2.75689466302950        5.61497287633354       -1.66638090714804
H           -1.77384989866130        6.91715853320302       -2.32364701815729
H           -4.06298751989940        7.59753764989708       -2.24472917505572
H           -3.54836352524190        7.50167234324383       -3.92139041176930
H           -5.82298229473241        6.67036200829695       -3.60487740154557
H           -4.78213768889220        5.42759992022988       -4.26417073158766
H           -6.31405792898800        4.53216115278032       -2.59273271371028
H           -4.65019691991861        4.29603561480212       -2.08728776267420
H           -6.00537038348993        4.93843614756179       -0.19800002383413
H           -4.85614697479135        6.23259586472050       -0.51572944880161
H           -7.77191210976831        6.24160454828217       -1.43025500336600
H           -7.15526650347361        7.07391150059102       -0.00544075842010
H           -6.63270093491616        7.57822925939336       -1.60707609572178
H            1.36034071855974        4.91171830231716       -3.69959117195758
H            0.34380352603440        5.63617687400839       -4.95681926931976
H           -0.18430015037248        7.51510444404780       -3.56143712979261
H            0.48666605917372        6.72974766214592       -2.11687791553450
H            2.04177617758920        8.35701280180070       -2.95447016432487
H            2.72847525693287        6.74556723458014       -3.12844682060185
H            2.29368043024486        6.76622906345401       -5.54144569905038
H            1.31893080947646        8.22939454945024       -5.38945153405481
H            3.49133016974508        8.76601690239676       -6.30782138517260
H            3.29187009253792        9.52425904330864       -4.73047091825421
H            5.54097398125891        8.66259218674283       -4.98664199794445
H            4.72804528552046        7.79982519038729       -3.69064466366089
H            5.06257157130383        6.75226683893438       -6.54417297431459
H            6.06856885633580        6.29518963097183       -5.17342101605488
H            4.36912785952408        5.84863971571019       -5.19571560164341
H           -1.27974310984495        2.60517641126732       -4.05681032609543
H           -1.19475586182982        3.76853556435818       -5.37587434142589
H            0.35816968224682        2.12229122964391       -5.76563954494238
H            1.25099120382093        3.58734644768966       -5.46523134294868
H            2.41823248127140        1.72999712567504       -4.56056754802476
H            1.91006494315157        2.70085186285003       -3.20312161502523
H            1.64999394980949        0.34037655406686       -2.72612491625210
H            0.07468955486273        1.10178214964197       -2.71496523309890
H           -0.03558308905459       -1.05911839530639       -3.78320623437184
H           -0.43598914859652        0.19171815805190       -4.94878889190921
H            0.93643658083602       -1.48707594752122       -5.99328792368027
H            1.86114498869865        0.00493337817032       -5.92504287655519
H            2.14937484762735       -2.30748626662452       -3.94764114596895
H            3.21233862910738       -2.01562256575707       -5.32128346940039
H            3.16257464726189       -0.86231659126792       -3.99536977944943
