36
 energy: -41.571730522356 gnorm: 0.000798355966 xtb: 6.7.1 (edcfbbe)
C            1.10116767053440       -0.08418139149577        0.24528690918386
C            0.59755034933530        1.27332904028410        0.71823693535846
N            0.91712457174363        2.42971616252053       -0.16628808112797
C            0.32778218926528        2.22183400527076       -1.54257187869000
C           -1.17888914746873        2.24656975613582       -1.61468841079917
C           -1.83741557850920        3.41858829251278       -1.97945714573010
C           -3.21627179527696        3.45130619293375       -2.08221326150190
C           -3.95937649535069        2.31088699594166       -1.82585118824977
C           -3.31439696155076        1.13516279276262       -1.48297270467037
C           -1.93414187973975        1.10098278352537       -1.38278879604777
C            0.28181704430976        3.66956391086922        0.38439611422298
C            0.80266654926667        4.21565953868124        1.70361680524475
C            2.39494912999169        2.60693681848675       -0.35625182439688
C            3.30213716329817        2.35943880658979        0.84289994419871
H            0.58191825405762       -0.43922001375025       -0.63986999312159
H            0.91019075590070       -0.80225532769578        1.03948608394734
H            2.16725218117992       -0.09335089323507        0.04289565972974
H           -0.48953793207443        1.23560370037049        0.81660911775845
H            1.02120314592261        1.48625417006258        1.69889703928942
H            0.72291600095224        3.01652677964280       -2.17935245028966
H            0.69875162368560        1.26848912052479       -1.91881552563063
H           -1.27029281869311        4.31069421027178       -2.20276693929683
H           -3.70896886063978        4.36617182065079       -2.37127034417065
H           -5.03422202141523        2.33467406176389       -1.90854221844494
H           -3.88376655316903        0.23682857926005       -1.30311104735891
H           -1.45319127450301        0.16432821406557       -1.14511163742038
H            0.39407245227346        4.44660885137095       -0.37433590923052
H           -0.78372317533792        3.45451218531923        0.48753456094613
H            1.79668335223459        4.64175379567631        1.60913034567388
H            0.13580288647991        5.02163418165833        2.00258920345462
H            0.79206718889385        3.47880396270399        2.50115429313761
H            2.70446257386791        1.92860292677252       -1.15387946439343
H            2.54515397880046        3.62790668660139       -0.71265886070640
H            3.32011587473966        1.31817707577867        1.14561517187463
H            4.31193979873909        2.62337850211483        0.53721415361573
H            3.05440975825555        2.96545370505725        1.70486534364320
