72
 energy: -79.555116176100 gnorm: 0.000197693554 xtb: 6.7.1 (edcfbbe)
C            1.69030184801791       -0.03862816302118       -0.17734491116432
C            0.84415176526550       -1.22312423953831        0.27334396307248
C            1.12860841073733       -1.65382689283236        1.71292274495576
C            0.80882592932789       -0.60155665768379        2.77695894904552
C           -0.65023126129216       -0.14145038059111        2.81621874093500
C           -1.67601248730972       -1.26042667719797        3.00838426552331
C           -1.47165553766201       -2.11332005056934        4.26149731721942
C           -1.56150728232878       -1.34873634384212        5.58365819971606
C           -2.91677698662854       -0.69219821237467        5.86133306422419
C           -4.11007300740130       -1.65086865398073        5.84453708816486
C           -3.98183930952826       -2.86172261982495        6.77352207572752
C           -3.68618094525231       -2.61151097453266        8.25505058777656
N           -4.77306601859900       -2.08343090305811        9.14407410100040
C           -6.05638186735470       -2.82836042861520        8.90203411954780
C           -7.17127965325535       -2.49031975746262        9.86011734470462
C           -7.23328875951989       -3.20104563850549       11.05790147639867
C           -8.20663979798196       -2.96186592348607       12.01422621385373
C           -9.15540257849491       -1.98489168272093       11.73611209915822
C           -9.13747562486035       -1.31027859875689       10.53278949960108
C           -8.16110163873115       -1.54581633811875        9.56829795304449
C           -8.25789045482161       -0.78599937839161        8.27663106260474
C           -8.24607667527637       -3.74197294130508       13.30254349819643
C           -8.54118346273636       -5.21819247195682       13.02659773723891
C           -6.94036218053344       -3.58475963354664       14.08571839436459
C           -4.32576688822435       -2.27683160513606       10.53730457428182
C           -4.97931513098175       -0.64043279033779        8.94312470598208
H            1.43738550477710        0.86065724501668        0.37851637773090
H            1.52543565554361        0.16074339054370       -1.23349800814349
H            2.74738525280189       -0.24920660043876       -0.03049823413799
H           -0.21369998927228       -0.97998738253440        0.15834197038693
H            1.05380119910634       -2.07340743969919       -0.38011814854688
H            0.56569896837574       -2.56610848144891        1.92261500757223
H            2.18925409625422       -1.90395162899670        1.79618271929261
H            1.08840686873546       -1.00642676465412        3.75265611437905
H            1.43516699684771        0.27609012200398        2.60898124234759
H           -0.75603805276649        0.59317284694182        3.61844689262565
H           -0.88694603634574        0.37398594713503        1.88400421467791
H           -2.67328201455723       -0.81414208275612        3.02671751269840
H           -1.64214069001927       -1.92394490590016        2.14292740984305
H           -2.20707102628159       -2.92145603969764        4.25123390470365
H           -0.48815301940365       -2.58229798238660        4.21319411368123
H           -1.30901467841367       -2.03613941618387        6.39576897237517
H           -0.80399547437698       -0.56419377278143        5.58916098288154
H           -2.85960782538617       -0.17467117713173        6.82287565376641
H           -3.09758963693919        0.07368157288162        5.10665082907725
H           -5.02365735038637       -1.08827309556481        6.05133817795129
H           -4.22127594908765       -2.04327728458525        4.83305408149310
H           -4.85976625446125       -3.49773888981792        6.65693217834837
H           -3.13342720086763       -3.45085469751760        6.41985992549719
H           -3.38206499272516       -3.57038974685667        8.68132758657709
H           -2.84241875343359       -1.92475058097054        8.33781145539995
H           -5.82435962168581       -3.89286046598889        8.98190082559034
H           -6.36633274540852       -2.61314717525361        7.88088722928890
H           -6.50755433503649       -3.97980455099927       11.24036963704609
H           -9.92886439454098       -1.76878562937706       12.45701856877424
H           -9.90608876826759       -0.58150254736593       10.32475023190040
H           -9.30274303187082       -0.57051556011958        8.06790602741979
H           -7.74089778566390        0.17159519933204        8.33875083980440
H           -7.86268195783993       -1.34038948221831        7.42909132084007
H           -9.05916755385110       -3.34074778332224       13.91492827566644
H           -7.74362154524019       -5.67530569085780       12.44543507484228
H           -8.63323687265470       -5.75971633225611       13.96417394982069
H           -9.47237750313252       -5.32308008711074       12.47499602040639
H           -6.71872370492882       -2.53287388610596       14.25421577233792
H           -7.02927210235995       -4.07374894931759       15.05177642534887
H           -6.10507115249163       -4.03719213083509       13.55575027031847
H           -3.37505921422728       -1.77046807717609       10.69504234605776
H           -5.06397546524679       -1.86856338508552       11.22508771468365
H           -4.19619836101189       -3.33555493465552       10.75203343528295
H           -4.05585097964005       -0.09981288782663        9.14223192828452
H           -5.29189837780190       -0.43896131907692        7.92347542178141
H           -5.74678052939265       -0.28771952110540        9.62945088702034
