14
 energy: -19.683325396469 gnorm: 0.000508213599 xtb: 6.7.1 (edcfbbe)
C            0.94636698347507        0.14184001446758        0.04028871564374
N            0.48550567925924        1.50961267269503        0.02142813596579
C           -0.82358242344845        1.77612469549133       -0.16770645065797
N           -1.31802395748092        2.97618645661614       -0.18819299962253
C           -0.51147424915893        4.01343685077249       -0.01619105065555
C            0.85547705630716        3.83350099060576        0.18645265393823
C            1.32845103960285        2.53503479084341        0.19956462632310
H            0.58823191438030       -0.38767661172225       -0.84310922420197
H            0.55934588048885       -0.37045580970652        0.92342298743223
H            2.03354682636771        0.10364700981281        0.06127306841493
H           -1.49972656808680        0.94248483594168       -0.30985772755084
H           -0.97378272255402        4.99055834259016       -0.04413318673323
H            1.52562577235730        4.66618091730592        0.32748335394569
H            2.37529876849064        2.30800484428646        0.35119709775837
