37
 energy: -45.632634874722 gnorm: 0.000354533346 xtb: 6.7.1 (edcfbbe)
C            0.47996775845441       -1.48451849497885        0.78625742165451
C            0.25609076811414       -0.65532227473606        2.04518400102718
C            1.01148832258955        0.67488726740943        2.03667545417257
C            0.60176689320682        1.63816387474085        0.91996720039943
C           -0.87519029981624        2.04109812689137        0.93353928659079
C           -1.37891851713218        2.66790922847839        2.24120694065243
C           -0.58666906131065        3.84980470948021        2.80701194355789
O           -1.02745248988179        5.14453130038559        2.36852309919057
C           -0.80118886494721        5.47004183477620        1.06171250001943
N            0.63335065852629        5.81656337182240        0.83586380132406
C            1.24036143443923        6.57864554405440        1.75192557440991
C            2.56693976318084        6.92926994034317        1.61504472564908
C            3.27376346199450        6.48167530140070        0.50518706783969
C            2.62128243411482        5.68971089370864       -0.43185377260997
C            1.29289478652134        5.36983953211289       -0.23627292595528
H            0.05844558577104       -0.99961210530277       -0.09083893689709
H            0.00458182099445       -2.45593670190438        0.89141223410013
H            1.54272986663768       -1.64248175715856        0.61768167832861
H           -0.81233276386541       -0.48041581413830        2.18175899083069
H            0.60136025635256       -1.22822928228491        2.90795695766331
H            0.87832479785865        1.16260925376274        3.00489499630507
H            2.07778243952441        0.46550965577780        1.92290710425570
H            1.23768856475892        2.52915063917570        0.98249834798863
H            0.81284777735578        1.17184216888570       -0.04364645576196
H           -1.06218896932331        2.70273975530772        0.08231748449592
H           -1.47770823965038        1.14950590180570        0.75738189922688
H           -2.41490138600938        2.98688996936934        2.10986063241973
H           -1.37912909166271        1.89109575303441        3.00551797925529
H           -0.73989813049008        3.90160560617450        3.88585186298938
H            0.48665654376022        3.73918316903396        2.61621976921565
H           -1.06362565341765        4.67680436201717        0.35334744830922
H           -1.39418290928802        6.36786399586273        0.84670218917767
H            0.63555036361545        6.88203464987295        2.59581709488804
H            3.03690877897483        7.54469382642151        2.36542696895158
H            4.31265195355785        6.74193403920536        0.37438392877855
H            3.13650821323612        5.31798438077676       -1.30311374712321
H            0.74910313324975        4.75186837842432       -0.93594074531611
