34
 energy: -39.760628042583 gnorm: 0.000215256519 xtb: 6.7.1 (edcfbbe)
C            1.26512252822610       -1.20002016130839        0.47227480626706
C            0.35084204439011       -0.31451964143367       -0.36648537644015
C            0.69919956804687       -0.32302641844366       -1.85532811181572
C            0.44059889712549       -1.66894038380535       -2.54386975066393
N           -0.96714916087532       -1.99265168619807       -2.53872960797687
C           -1.90533765638711       -1.44564329981639       -3.35988127933960
C           -3.11401145614452       -1.95061294446502       -2.98848558562850
N           -2.89777711242205       -2.79087342301832       -1.93924690822078
C           -1.59187590672345       -2.80104088215224       -1.68706140543941
C           -3.90571836316739       -3.59753506330613       -1.29130376266503
C           -4.26022253882779       -4.82241454413998       -2.14370598646181
C           -3.10283037274268       -5.80618860156328       -2.31942432544579
C           -2.72120299349640       -6.52353105750045       -1.02971907350485
H            1.16797404361801       -2.25236976933584        0.21447941848322
H            1.02227229896233       -1.09126459138847        1.52547254874554
H            2.30309718358077       -0.90948154040224        0.33471908754218
H           -0.69201689479391       -0.61133514498855       -0.22205098336228
H            0.44261661608291        0.71197959765706       -0.01021829574604
H            0.12577405873211        0.45272746013163       -2.36630785453801
H            1.75689432074447       -0.08911099550752       -1.97652018866513
H            0.77754538018806       -1.62073900430563       -3.58150498177899
H            0.98338632009038       -2.46573752790053       -2.03455391226134
H           -1.65736524394798       -0.75461389577649       -4.13925347814962
H           -4.09000446398977       -1.76695140771914       -3.38866794386544
H           -1.11555604627759       -3.37340860469809       -0.91497759952861
H           -3.52879131492369       -3.90996998314788       -0.31703248473198
H           -4.79575206833051       -2.98222017695427       -1.14385463416438
H           -5.09256136214063       -5.33240798995373       -1.65877021138931
H           -4.60193164065115       -4.48503595799300       -3.12404584668499
H           -3.40937616223352       -6.55303064784391       -3.05245430237597
H           -2.23063482417270       -5.29127509922550       -2.73269786785583
H           -3.58165933043012       -7.04412199484683       -0.61814010587732
H           -1.94701400400784       -7.25901196769380       -1.22938932337271
H           -2.34355434311352       -5.83791265096101       -0.27425467307226
