47
 energy: -68.662291179440 gnorm: 0.000509390461 xtb: 6.7.1 (edcfbbe)
C            1.11746944827696       -0.71566817148346        0.61529428143373
C            0.65737319460416        0.42460524675365        1.25188663765002
C           -0.54797740258690        0.99095577171383        0.87657835484545
C           -1.30812090909425        0.41154453124839       -0.13143216190055
C           -0.83974153787861       -0.72689595200969       -0.77269741686000
C            0.37106372275779       -1.28567118199173       -0.40196282425934
C           -2.62134434445813        1.02619938244227       -0.56257282254160
N           -3.36688745885455        1.57049131282018        0.55077792651877
C           -3.79527083337652        2.86427663186884        0.64537327887648
C           -4.36838785042087        3.02187398411507        1.86544295056843
N           -4.28913584422219        1.82366067669300        2.51162611482513
C           -3.68811892277837        0.94189365904945        1.69644013061793
S           -3.33009529373877       -0.69487031003769        2.16142493369446
C           -3.84329090236639       -1.60120209197434        0.70412768186944
C           -5.02250126594616       -1.27452920192604        0.05084901820355
C           -5.41392654802112       -2.03145435060159       -1.04044484335840
C           -4.64730709660372       -3.10877245894623       -1.45592810700603
C           -3.48320597286486       -3.43630982525863       -0.77962778260007
C           -3.07174887181152       -2.68019922924760        0.30486615869698
C           -4.87023673447003        1.54316928486364        3.81214832912965
C           -6.36095483484146        1.34073483756258        3.66005733259575
C           -7.24024058143982        2.39509120038940        3.86605376745755
C           -8.60060830285442        2.21152309521017        3.68777691592844
C           -9.08821271357962        0.97693666583351        3.29367850232038
C           -8.21446372272079       -0.07760434366988        3.08614819711259
C           -6.85460555194088        0.10259755829124        3.26771987043346
H            2.05830434559190       -1.15469411231870        0.90755619204793
H            1.23911338625367        0.87922575745893        2.03845936602039
H           -0.89162071412712        1.88923900246289        1.37103080818880
H           -1.42031287378858       -1.17161030842875       -1.56773402370397
H            0.72925582360495       -2.16814573579257       -0.90875400007477
H           -2.43450211140348        1.85146491017473       -1.25600078640506
H           -3.22988943406512        0.27736261336594       -1.08102357229057
H           -3.66053056455939        3.56677666631900       -0.15113231100326
H           -4.81695897089760        3.88314089314110        2.31513714120457
H           -5.63313367127721       -0.44963049015811        0.39022010120123
H           -6.32735430710601       -1.78188662347172       -1.55764241879186
H           -4.96335278586432       -3.69738271291785       -2.30263841062463
H           -2.89025268646979       -4.28035112077384       -1.09458346445394
H           -2.16686015458032       -2.92228283507612        0.83948618582232
H           -4.39525379474463        0.64782580303247        4.21629592058412
H           -4.66007970713716        2.38985542592616        4.46827980674487
H           -6.86578176809522        3.35750221292438        4.18345455266469
H           -9.27889689992570        3.03265351369587        3.85938876732087
H          -10.14849506988741        0.83464242532611        3.15537561267464
H           -8.59143842043532       -1.04386037457646        2.78835379799678
H           -6.17708248986053       -0.72621163205910        3.12112631061426
