28
 energy: -37.114718213542 gnorm: 0.000629077228 xtb: 6.7.1 (edcfbbe)
F            1.04970239111201       -0.10022480483845       -0.06568261576107
C            2.34126727600549        0.05816284837275       -0.50103560488820
C            2.88939161733888        1.41880114946176       -0.04143946906933
C            2.27403645197753        1.95693575728136        1.25382766309104
N            2.79302999414929        1.44133340457384        2.56152308278506
C            4.20544617768942        1.83361085316758        2.71930504917994
C            1.95892213551255        2.06581112030608        3.63415528347404
C            2.20948979398809        1.45172707108102        5.01619692373258
O            1.98492957877420        0.06905229189379        4.99064586413417
C            2.84420181140096       -0.56353611761089        4.08263048350091
C            2.63645933628184       -0.03742513992270        2.65622839967038
H            2.90594578980352       -0.79295981182243       -0.10900344440664
H            2.32108901685281       -0.00173437495554       -1.59215324848984
H            3.97609330511833        1.36858413625051       -0.00391339842908
H            2.63117536322131        2.15699832332200       -0.80307293025273
H            2.41282157419947        3.03982264392458        1.27420416613871
H            1.20054712981554        1.75613020233701        1.21729247595694
H            4.82159162329293        1.33732241270611        1.97316644351790
H            4.30674028865926        2.91093491779475        2.60029597033912
H            4.57583963535499        1.55815907539213        3.70297697819023
H            0.91011028517626        1.89454358974916        3.38210716543432
H            2.15021716506271        3.13891074198681        3.65822091626437
H            1.48952204234107        1.86878455584080        5.72270134855103
H            3.22128655511115        1.67693309219127        5.38250299944527
H            3.89199307827638       -0.45180497052615        4.39766402353033
H            2.58975853428559       -1.62466968465775        4.10675064821381
H            3.35526380319298       -0.51634191193147        1.99354220366271
H            1.62221824600514       -0.28802137136839        2.33813262248437
