34
 energy: -39.752006336368 gnorm: 0.000616692564 xtb: 6.7.1 (edcfbbe)
C            1.20471231759559       -0.17511419014754       -0.32737306316399
C            0.43210292615096       -1.28595657081004       -1.03301919676699
C            0.69057956749611       -2.67420714090741       -0.41449990502847
C            0.74287082821986       -2.78105860947771        1.11369756959867
C           -0.54476870175199       -2.46731125842870        1.87461964689801
C           -1.71763292283865       -3.39008671830074        1.52401816186189
N           -1.44346255203897       -4.74794219411177        1.93267573200857
C           -0.92064619598072       -5.71164702620522        1.18101925897752
N           -0.73839732670709       -6.80294519459649        1.92056136360141
C           -1.15107937153157       -6.52387836823211        3.18818674927522
C           -1.58967402175885       -5.23472684090811        3.19531007761861
C           -0.19539427415105       -8.05905202484151        1.47795054443026
C           -1.05136418172295       -0.93215056833391       -1.14126570191785
H            0.81783542165903        0.00936925275217        0.67134438740209
H            1.11841051865425        0.74822329141393       -0.89320084992415
H            2.25979132182568       -0.42709207273618       -0.25380994507589
H            0.81023381757104       -1.34738814345205       -2.05985209302869
H           -0.04807324948518       -3.37023774207107       -0.82116388159077
H            1.66704405139984       -3.01131611451608       -0.77045496997189
H            1.06919547656274       -3.79550147282337        1.36807741518449
H            1.51520172076003       -2.10597964686790        1.48073559614314
H           -0.34498897492322       -2.54062771808968        2.94628303108125
H           -0.85471393362545       -1.44498579286624        1.67046318017496
H           -2.61890661536802       -3.05427764339286        2.04064106213329
H           -1.89996562629249       -3.37409086257239        0.44934573056418
H           -0.68985212667006       -5.62672895147218        0.13696108498734
H           -1.10797584262785       -7.24343042796559        3.98030917251614
H           -1.99378068575804       -4.64921483542655        3.99582645848979
H           -0.85306950723913       -8.87480877666999        1.77692094848295
H           -0.09512216247289       -8.05952840211203        0.39516918480826
H            0.78559671491780       -8.22448090793950        1.92601851654191
H           -1.16407051114270       -0.02851635739157       -1.73461270547058
H           -1.60446982979498       -1.72585750275966       -1.64052968359727
H           -1.50535606892538       -0.74518246772608       -0.17218287724694
