42
 energy: -44.671555124404 gnorm: 0.000206159669 xtb: 6.7.1 (edcfbbe)
C            0.28708845689418        0.46563717747967        0.31948777819496
C            0.28710219157964        0.40455129866765       -1.20298903173309
C            1.29046175745294       -0.60449273234111       -1.76377108697617
C            1.04915813543162       -2.06100894359129       -1.35630062905806
C           -0.35448549377558       -2.60406148144188       -1.65993943966811
C           -0.80942992577532       -2.48795379986842       -3.11965145173403
N           -0.62697890797935       -3.67787035468744       -4.01797039751848
C           -0.92532761848883       -3.21032747432104       -5.38476257757448
C            0.76865571549197       -4.18195488215500       -3.93567381583238
C            0.98997232211585       -5.46838066901606       -4.72017234391878
C            0.07282083520428       -6.56375116115676       -4.18746030955730
C           -1.39506912230089       -6.13417247745045       -4.25930333118554
C           -1.57994631453103       -4.75048943225785       -3.61213157621539
C           -1.96662967134112       -6.28066557457600       -5.67192128571733
H           -0.06905663894908       -0.46310771086292        0.75826316725539
H           -0.36171116462433        1.26803758862667        0.65983744667539
H            1.29010275127014        0.65981860610765        0.69058197236601
H           -0.71958865095052        0.18024711884985       -1.56289629193547
H            0.55425627900360        1.38885294490423       -1.59165529339925
H            1.31111349857097       -0.51415445623161       -2.85369854446309
H            2.28659453315517       -0.33104646946216       -1.41195314471123
H            1.81741330574363       -2.67459642834955       -1.82999038362948
H            1.19712059727344       -2.14743153986111       -0.27964661991251
H           -0.41648285700912       -3.63291562012326       -1.30172915982298
H           -1.06414867462758       -2.03274427113405       -1.06099003106480
H           -1.87538074046270       -2.25266047614081       -3.14506497025710
H           -0.27442470861848       -1.65498607770197       -3.57717256526570
H           -1.92305214287588       -2.77669794900242       -5.41905419954507
H           -0.20442954184923       -2.45168085930693       -5.68504456862999
H           -0.88371367719762       -4.03131432491545       -6.09052016776010
H            0.98465991251003       -4.38622878172155       -2.88716810687489
H            1.43598551697121       -3.39225025517897       -4.28553270279797
H            2.03078410709076       -5.76423409870978       -4.58641647044879
H            0.83937381336218       -5.31652488764687       -5.78812622937505
H            0.21157993694651       -7.47971367755322       -4.75943460107726
H            0.34049487262476       -6.77964070687647       -3.15121954085699
H           -1.97784428804767       -6.80828069553042       -3.62261215394268
H           -2.59234470126936       -4.39054149124351       -3.80705906178837
H           -1.47031182528975       -4.87687843585881       -2.53372293832584
H           -2.18013741331881       -7.32982673005019       -5.85825729661298
H           -2.89922550663698       -5.73301034860511       -5.78063326155761
H           -1.27579895278162       -5.96177945970730       -6.44736478374026
