47
 energy: -57.814334791558 gnorm: 0.000256711964 xtb: 6.7.1 (edcfbbe)
C            2.52184042077797        1.37293883403535        0.49421134232854
C            1.02368077120408        1.14663940241023        0.65818827171221
C            0.65620882474436        0.42511111065397        1.95582245420356
C            1.06205271976471        1.15398168463575        3.23800359462501
C            0.41100483016128        2.52450033781241        3.43907916978361
C           -1.09643361231493        2.42207311876140        3.65420544617934
C           -1.74604132635969        3.77087263012158        4.02147145847942
C           -1.71202496313984        4.75476235964374        2.91475277432620
N           -0.85737214943743        5.78200298572741        2.80224306119325
C            0.18089751816627        6.14421729517664        3.73254946626486
C           -1.15105704286214        6.47188294257233        1.66249410728295
C           -2.20473206429099        5.85024961345206        1.07526932830857
N           -2.54312226738472        4.78902352747504        1.86416007059520
C           -3.61070738315334        3.86071823360991        1.55952849001468
C           -3.12863646006956        2.65442508252938        0.77939608625062
C           -2.34830059757820        2.81321525994850       -0.35866918976745
C           -1.94527095171671        1.70794247026683       -1.08716774543277
C           -2.31902516004538        0.43670991308834       -0.68558948489827
C           -3.09525797644529        0.27274987889565        0.44886390313522
C           -3.49817758514067        1.37699675803393        1.18035583993555
H            2.90223674542114        2.07403394157358        1.23279494444687
H            2.73533511750457        1.77522130194024       -0.49298843151064
H            3.05944556896100        0.43451815545354        0.60236383212717
H            0.49634353973502        2.10231423165737        0.59668230661647
H            0.66828518855559        0.53484368592211       -0.17311648429919
H           -0.42014030230884        0.23858295287135        1.96037278308884
H            1.15145735085605       -0.54752480305627        1.95895655149972
H            0.80747019622609        0.52017738527782        4.09014976158297
H            2.14487466639503        1.28204218859423        3.24434099663889
H            0.86591057382182        2.98275799732362        4.32145998376226
H            0.62335690627191        3.15801953677338        2.57503459976544
H           -1.56891270177960        2.02220195794818        2.75793081467083
H           -1.28950128934653        1.72897578414616        4.47369104209246
H           -2.78728405307675        3.58919837388140        4.29782045555369
H           -1.23614195965586        4.18788347626023        4.89062061918140
H           -0.24704749085198        6.40158816651570        4.70245398322173
H            0.88550415260709        5.32333742897637        3.86118248747656
H            0.71419938528691        7.00985708093815        3.34689149083681
H           -0.60320201448932        7.33934268912773        1.35757857506120
H           -2.73768761612439        6.09333983267801        0.17924562294202
H           -4.08064133547213        3.53572359000936        2.49018376573779
H           -4.35525647086432        4.40212353560686        0.96825060467547
H           -2.05496830032486        3.80058339477110       -0.68542750899276
H           -1.34340513411610        1.84264474127103       -1.97226061769300
H           -2.00955727197909       -0.42368303376973       -1.25749777325386
H           -3.39151942773194       -0.71483298972563        0.76589715718576
H           -4.11152956839776        1.24375595819714        2.05979999305103
