26
 energy: -26.294753781107 gnorm: 0.000466071450 xtb: 6.7.1 (edcfbbe)
C            0.86040105239011        0.13430683553672       -0.00669304558326
C            0.47297594430019       -1.33968239650859        0.06098354376696
P            1.03671114545313       -2.14508400609993        1.59799555396832
C            0.44536968926001       -1.24724786175174        3.07229871918838
C           -1.07410828865284       -1.12566336575948        3.13299889329725
C            0.41728203450526       -3.86109931482580        1.64794403076593
C            0.98439341541293       -4.73282472294262        0.53137634462463
C            2.84613876873750       -2.14925517142354        1.64814858276005
H            0.40749350491686        0.70337485963577        0.80150975642693
H            0.51297643414671        0.55714039446793       -0.94592850554088
H            1.93940312244665        0.26232542274586        0.03631951619529
H           -0.61215442105247       -1.46020055344435       -0.00226600035406
H            0.92025162798772       -1.88741488621418       -0.77328394498552
H            0.82403376843696       -1.78280834702898        3.94815620431856
H            0.91218901708588       -0.25809195676355        3.06169141387666
H           -1.54830619509409       -2.10213345059984        3.19283667610078
H           -1.35752889208971       -0.56426927610518        4.01965167351574
H           -1.46579416311562       -0.59911310077328        2.26588602384486
H            0.68335704746642       -4.27118777180940        2.62718243072758
H           -0.67360265300163       -3.82420017859672        1.58244223875558
H            2.06797024082864       -4.79935951047081        0.59065556807760
H            0.58443772648491       -5.73954392800834        0.62153773606064
H            0.70786020665939       -4.35311030217784       -0.44914980506713
H            3.24478579868978       -2.53591077366609        0.71112369962072
H            3.21317352046609       -1.13515732045749        1.80028792668392
H            3.18744054733121       -2.77568931695850        2.47184476895454
