59
 energy: -61.496701542475 gnorm: 0.000187810849 xtb: 6.7.1 (edcfbbe)
C            1.59908621290790       -0.19290465986261        0.61846300674403
C            0.59914758015962        0.95777965931318        0.76137853900222
C            1.01787272582571        2.23713881940505       -0.00261829092905
N            0.92950520507733        2.34518346367652       -1.50076398040237
C           -0.43644620500468        2.74628647322122       -1.97605961857129
C           -0.94712788358230        4.13875517424600       -1.54431766624310
C           -0.92392583877756        5.17589486678878       -2.68960494770621
C           -1.96943143235050        5.18029300219862       -3.83182324776851
C           -3.32212098668960        5.73474729589491       -3.37476432547446
C           -1.41531262790398        6.13440755750155       -4.90074273726671
C           -2.18286420173547        3.81110984873681       -4.48012874575008
C           -2.30354111727506        4.01458827613774       -0.85017963144804
C            1.91747438067789        3.35152955486842       -1.94142457223598
C            1.27760028375760        1.07580036006477       -2.16426103735097
C           -0.86254218791718        0.54882452707850        0.53382601541861
C           -1.53620061279615       -0.35537304107411        1.59822913138359
C           -1.19818148412117        0.08915832257624        3.02168143164371
C           -3.05109899929722       -0.21736734427048        1.39064268320981
C           -1.16891362543334       -1.82946567608787        1.41524703213009
H            1.35519710900591       -0.86520658986344       -0.19818655834381
H            1.60523758273473       -0.78158710777705        1.53042090990565
H            2.61198726574213        0.18055920320955        0.48232201848364
H            0.66984978702473        1.30152413621829        1.79915950678027
H            0.43169755275038        3.06543686131883        0.39708862374731
H            2.06281524039924        2.41628333560063        0.25980310508046
H           -0.40680958440261        2.70415854475600       -3.06394137099381
H           -1.13074351525961        1.98244155116241       -1.62967805245222
H           -0.26214250909791        4.54835769563144       -0.79351131595107
H           -0.98641941233642        6.15960869692778       -2.21923511097392
H            0.06237013281660        5.12075534434555       -3.15688105523688
H           -3.19327035193374        6.65688458393164       -2.81372562180786
H           -3.93527751091610        5.95801911351563       -4.24422099244368
H           -3.87057809642523        5.02770833907983       -2.76235820026446
H           -0.46855185358072        5.77496692625083       -5.29967335792675
H           -2.11458782070561        6.22290782655008       -5.72723555301458
H           -1.25689957255254        7.12627773123740       -4.48498391166007
H           -1.25900803730309        3.42754655987877       -4.91123964934059
H           -2.58565861254276        3.08664643175174       -3.77697804737347
H           -2.89863347938563        3.91128743703839       -5.29222001463443
H           -2.20299269876783        3.48347565117733        0.09481788990527
H           -2.70226903612924        5.00038812329672       -0.63354042812000
H           -3.01957715333115        3.47871421656402       -1.46504260726380
H            2.92735587402889        3.00055273362714       -1.73547672552776
H            1.82263200736522        3.51662247017799       -3.01313034515913
H            1.76664703380892        4.29712548583255       -1.42683382860466
H            2.24936078479514        0.72967708962825       -1.82155140948294
H            0.53131711770001        0.31715866776191       -1.94828188235562
H            1.32150215847329        1.22083955771542       -3.24279012665476
H           -1.45314128169128        1.46699724558686        0.50562670811383
H           -0.97323574046603        0.04116173835134       -0.42745336356439
H           -1.38708706515564        1.15255427637785        3.15486681767312
H           -1.82249066968236       -0.45114241139230        3.72790766937292
H           -0.16204700515901       -0.12170523965004        3.27430316403219
H           -3.32888682937248       -0.47932391353977        0.37174022427145
H           -3.58542613270158       -0.88059705895583        2.06453283431139
H           -3.38240710231166        0.79985827486206        1.58939921945360
H           -1.38048235777103       -2.15903211240929        0.40022903323271
H           -0.12350307129981       -2.02066343004255        1.63143939075867
H           -1.76115233193974       -2.43839446623944        2.09305337557451
