28
 energy: -33.438809195271 gnorm: 0.000264703919 xtb: 6.7.1 (edcfbbe)
C            1.20881920588190       -0.12152982022932       -0.08888775708343
C            0.47621031447075       -1.43051547634199        0.17514955289572
N            0.98164404224743       -2.07935894283949        1.38168102188878
C            1.06387352946560       -3.42500059657500        1.56765465808827
C            1.52585190194311       -3.63294277744464        2.83146834219761
N            1.71435704737709       -2.41208238493931        3.40041590266212
C            1.37714340611278       -1.48807073044769        2.50462580896707
C            2.23341417089776       -2.16582366462940        4.74268012834131
C            3.63392523015115       -1.56736727457747        4.64519484558985
C            1.27899787543549       -1.26790164749138        5.52230899709667
C           -1.02979405406490       -1.22041709636229        0.31820609181153
H            0.91689397636048        0.64899943715272        0.61959197079032
H            0.95478354156929        0.23249878818031       -1.08355219854869
H            2.28644094558675       -0.26057427414309       -0.04660460847452
H            0.66869439666889       -2.12722735726994       -0.64703194419287
H            0.79906511982076       -4.12989156749162        0.80644777463176
H            1.72757244914546       -4.54869494415507        3.34835550934499
H            1.42183856517865       -0.43009673963181        2.66368741261077
H            2.28994862997801       -3.14374555272783        5.23012907547170
H            3.60779143882511       -0.58321570189736        4.18431032617312
H            4.05246822869800       -1.46468405540625        5.64166134849240
H            4.29156141361074       -2.21042390290344        4.06520468788579
H            0.26972934489398       -1.67243855619578        5.51320583398422
H            1.60894829192111       -1.20676641520542        6.55498453728065
H            1.26082776319836       -0.26001595055931        5.11661333784554
H           -1.42355184550215       -0.79066029294528       -0.59763834065946
H           -1.54023817209645       -2.16308689550140        0.49960312979040
H           -1.24794675777525       -0.53958560742134        1.13762455511853
