39
 energy: -43.409676164989 gnorm: 0.000483582736 xtb: 6.7.1 (edcfbbe)
C            2.41511003915764        2.75331010876119       -1.47216035345368
C            1.85849807526192        2.15738218161262       -2.76058446049217
C            1.51118288421271        0.67358934327168       -2.63730320822688
C            0.29411211951308        0.42946530079942       -1.74979093103870
O            0.02442771114429       -0.97228045132039       -1.76400232567491
C           -0.98608401830456       -1.47120962445318       -0.92014971237073
C           -0.51969857167120       -1.61777593010546        0.55290498962765
N            0.67786670623196       -2.47895571773819        0.79670904909865
C            1.90541475971962       -1.81723691047305        0.31550999386300
C            0.79402211093212       -2.70329373144099        2.25129691297696
C            0.54476587991792       -3.78310717305075        0.12192776966173
C           -2.30346378476010       -0.67788829948976       -0.94200324414225
C           -2.93881690386209       -0.70223749649282       -2.32866818906182
H            1.67266223609640        2.75017550522097       -0.67718953571859
H            2.71638862638970        3.78334444738830       -1.64036773402405
H            3.28807379613849        2.19561823628484       -1.13857422631002
H            0.97146709393734        2.71403868637318       -3.06780050422313
H            2.60561045903538        2.26712105512366       -3.54754620160585
H            1.28898307570380        0.26536234888934       -3.62411479243564
H            2.37302594919234        0.13177720282146       -2.24100209198187
H            0.48764837243405        0.77137695167369       -0.72542801210645
H           -0.55708408695458        0.98928911730856       -2.14864653800074
H           -1.20068237118928       -2.46401229311492       -1.33196575275348
H           -0.30221164997134       -0.62682357876045        0.95673682323171
H           -1.35265760030292       -2.04081747035884        1.11668403670915
H            2.07037742492971       -0.88850398043770        0.85873679844810
H            2.76340773068696       -2.46908317045267        0.46827098261915
H            1.80247811714922       -1.59776724310441       -0.74653092040738
H           -0.05704002053443       -3.27479544944154        2.61716912139207
H            1.70528857009692       -3.25642504665753        2.47225183616503
H            0.82949536972888       -1.75217518253831        2.77967844254495
H           -0.40920719891146       -4.24307335814293        0.37339054565406
H            0.61075602608881       -3.65500084374664       -0.95623081725210
H            1.34761807342914       -4.44553373502950        0.44126903436439
H           -2.99198455221962       -1.12866096846500       -0.22574266526492
H           -2.12500969978954        0.35060111023645       -0.62596532713447
H           -3.24540240266565       -1.71195857593853       -2.58879780573970
H           -3.81554042824210       -0.06196966282945       -2.34791353954291
H           -2.24000791773505       -0.35551570219954       -3.08455744738884
