54
 energy: -116.984117025261 gnorm: 0.000343070605 xtb: 6.7.1 (edcfbbe)
C            1.44290644751543        0.76205777042109       -0.58471876700301
C            1.29202666137449        0.65835111087657       -2.09762065871584
C            1.57708917153639       -0.74456093104507       -2.63768579548694
C            0.64881048721069       -1.83860750932435       -2.10467122989421
C           -0.84031599649051       -1.60466889004092       -2.37063525793332
C           -1.20841405028208       -1.41221356276832       -3.84263802883464
C           -0.78044390124557       -2.57787686582669       -4.74352022292342
N           -1.35411946784785       -3.81731546770830       -4.28798850627612
N           -0.61963661454320       -4.71625835937730       -3.64666440344065
C           -1.42322124981352       -5.67307559840423       -3.30810434223134
N           -2.69063157002839       -5.40301262976241       -3.73054866326023
C           -2.61204485525194       -4.21505242660783       -4.34874092792866
C           -3.87327484811841       -6.20382590780558       -3.50187619909093
C           -4.29150467377793       -6.20875956099066       -2.02594597174600
C           -4.60232892640806       -4.83577275020264       -1.42282864524481
C           -5.76710602642869       -3.99320360809909       -2.04121766434723
C           -7.16903870423864       -4.66215422478976       -2.18343373580264
C           -7.88024734513391       -5.22852506531464       -0.91575931431683
C           -8.25235756440274       -4.23706198178826        0.23009106486134
C           -9.22572677123173       -3.07892231035770       -0.17694561436370
F          -10.20439448440289       -3.52008353414957       -0.95414997694443
F           -9.74859378840871       -2.53188477029234        0.90177151468791
F           -8.55394856183023       -2.14371650405977       -0.84413287902236
F           -8.81735000294304       -4.95376492976409        1.20816549593043
F           -7.12714356584130       -3.69337591389487        0.72646064735186
F           -8.99141009859883       -5.84670284535495       -1.33386390511083
F           -7.07595202660114       -6.18869504683298       -0.40848268118887
F           -7.98036517572243       -3.79821115099127       -2.80286545394062
F           -7.00131235440343       -5.71001570212238       -3.02926645451320
F           -5.87234857102874       -2.83845261762526       -1.37932003864984
F           -5.38547549443392       -3.67036120890032       -3.30831409501541
F           -4.82195701237957       -4.96624934721278       -0.10611080168210
F           -3.49840429146552       -4.04005425537635       -1.53879833826427
H            0.68089417702152        0.18386212654182       -0.06821716351628
H            1.34758786755101        1.79802151389839       -0.27038127188545
H            2.42057992810113        0.40099312377435       -0.27461164921395
H            0.28872441378287        0.97824717279296       -2.38607087855478
H            1.99697661951408        1.34670022031684       -2.56817267824546
H            1.53378586220101       -0.71592451272023       -3.72929152250091
H            2.59905822454906       -1.01655613732247       -2.36608204090081
H            0.95547632486562       -2.79811979666968       -2.52798374724572
H            0.78249514414640       -1.91631225700560       -1.02566628076153
H           -1.40535907824496       -2.44275803555921       -1.95404514779672
H           -1.16218546139100       -0.71289311826854       -1.83350426725658
H           -2.28767367655454       -1.26826551988580       -3.92483424419200
H           -0.72432610292418       -0.51531449351664       -4.22647336169161
H           -1.09867048488996       -2.39355630738519       -5.77165602750647
H            0.30181683429834       -2.70568962446470       -4.71074366974700
H           -1.12314053289411       -6.55503221502570       -2.77947492739604
H           -3.42560034791507       -3.68841110499880       -4.80798153023139
H           -4.67522596388732       -5.83257693876026       -4.14205221125790
H           -3.65584053785151       -7.23649615336444       -3.78875836995918
H           -5.15540052328775       -6.86118227832702       -1.89803544456971
H           -3.48411746046902       -6.61084906859153       -1.40613371526795
