32
 energy: -52.383125469815 gnorm: 0.000363775394 xtb: 6.7.1 (edcfbbe)
O           -1.94447480259080       -3.54529571282993        1.24879889211181
C           -1.54936398356524       -2.53467292681314        0.49689766283652
O           -0.39044765561566       -2.20872861665857        0.35852232496820
C           -2.65861523088416       -1.81653794691252       -0.18018613133644
C           -3.98679523900131       -2.20225511428549       -0.04341865302205
C           -4.98088542676204       -1.50699039212393       -0.71042520388982
C           -4.65468985633689       -0.42889588848652       -1.51761646353003
C           -3.33330315382188       -0.03376493018904       -1.66150979654726
C           -2.32862441119270       -0.72159739433904       -0.99271929868883
C           -0.92619669867279       -0.30223777450086       -1.14220846077058
N           -0.12848496161975       -0.66638540119105       -2.15410360569346
C            1.09465427010859       -0.04679156017571       -2.00768317991950
C            0.98652962345847        0.75579411548214       -0.85909270704363
N           -0.29435572394645        0.58026465324167       -0.36898117913097
C           -0.80531494043118        1.19287257130089        0.82664521903279
C            2.05117308157936        1.52886182253795       -0.41663870573259
C            3.21366627962628        1.46983418946912       -1.15967735696932
C            3.31839886376958        0.67374829364462       -2.30292845239527
C            2.26457233207304       -0.09856146558181       -2.75041428710291
H           -1.19271654362503       -3.99566193286811        1.66839934330330
H           -4.22537604720343       -3.04603972675683        0.58408853799991
H           -6.01079049926288       -1.80803868487202       -0.60291752215581
H           -5.42907659303728        0.11022753826411       -2.04026935012836
H           -3.08298724231263        0.80821705217724       -2.28900056970211
H           -0.36064821192793       -1.34881996837696       -2.85992156235495
H           -1.87328521304183        1.00071370792822        0.91185259019320
H           -0.29629305878481        0.78170539110209        1.70017689337698
H           -0.63231208663526        2.26849156316071        0.78993575591978
H            1.97947797129454        2.14151399620939        0.46670477575744
H            4.06670294220930        2.05192844966476       -0.84940852908365
H            4.24887270777348        0.66200840425764       -2.84763312615204
H            2.34757950837502       -0.71477631147568       -3.63049785415236
