28
 energy: -45.893209848964 gnorm: 0.000363245652 xtb: 6.7.1 (edcfbbe)
Cl          -1.33536188425526       -2.26545307024077        1.90013971020541
C           -0.23700848728545       -1.23294911230756        1.09139699175939
C           -0.23677479740956       -1.16919547818963       -0.30017143326008
C            0.64797238665937       -0.33182362794098       -0.93953267434095
C            1.55486474748022        0.45338015527935       -0.21114191517148
C            1.54246014013547        0.37731405153002        1.18773814225023
C            0.65316261513564       -0.45499963383798        1.83071275904034
C            2.44444352705680        1.31992645235969       -0.96876617425543
O            2.39135895882660        1.48747053844866       -2.16661021449982
C            3.53060738110607        2.10265991116291       -0.16910960831182
N            4.43011845183547        2.69378282512892       -1.11462204047073
C            5.73421053111587        2.35864334899284       -1.32958684433755
C            6.13365704899914        2.99733781165879       -2.46210659137278
N            5.06443817702217        3.70060743677026       -2.93158306693459
C            4.04232331020931        3.49470000196838       -2.10802265551401
C            5.05329001869914        4.50132109472929       -4.12542162319219
H           -0.92862824619288       -1.77191122072480       -0.86606724044625
H            0.66189366269897       -0.26656123169028       -2.01683154636734
H            2.21327800755301        0.97475869317936        1.78457179980508
H            0.63867134782088       -0.50941597433209        2.90747173496997
H            3.02893952689900        2.87468959234963        0.42093961135127
H            4.08354459644704        1.43614939828750        0.49205590157236
H            6.27942306026488        1.70889003589663       -0.67601946819707
H            7.08395220602525        2.99678801777735       -2.95579140297213
H            3.06458249918109        3.92136272686065       -2.21539205760355
H            4.09348189680521        5.00285406697180       -4.22423394709596
H            5.84710054337756        5.24742633125959       -4.08443833479876
H            5.21393877379933        3.87012685865025       -5.00047781180470
