36
 energy: -41.595981674983 gnorm: 0.000398087764 xtb: 6.7.1 (edcfbbe)
C            2.92997851633084        0.40083957731760        0.43127065931156
C            1.49520266843375        0.01193717587660        0.21922898761029
C            0.54119409901152        1.02432868215232        0.26063908082715
C           -0.80846824484339        0.80414601420250        0.04552826368996
C           -1.78135773005003        1.93393112005145        0.10733470909797
C           -1.23792915024699       -0.49431086322024       -0.25922205121453
C           -0.29794002014294       -1.50755522125156       -0.29539230988112
C            1.05649486056012       -1.29032054868805       -0.03445050244399
C            1.98297577591876       -2.47590970509738       -0.09519985986082
N            2.09955624355511       -3.24327979241157        1.19868399554007
C            0.79048679150864       -3.78930723468455        1.59390205102278
C            3.04726483127437       -4.35410716157132        1.00449198276470
C            2.59243704058325       -2.36410505367250        2.27092065213785
C           -2.67553875439064       -0.77965087715348       -0.54805689371024
H            3.62823097923076       -0.26272437047790       -0.07141433974272
H            3.08993804793880        1.40147286496664        0.03867069609861
H            3.17799422083056        0.43124896046424        1.49191280503372
H            0.87552003976385        2.03150144603920        0.46140290400108
H           -1.28353797438389        2.86353976717679        0.36725738457100
H           -2.27561525943465        2.06209041400656       -0.85461030764273
H           -2.55480488979939        1.73281340535454        0.84727198632865
H           -0.62880178030285       -2.50205760454704       -0.56158850192425
H            1.61974114223678       -3.17844019776318       -0.84831730693531
H            2.99005798409400       -2.16484725846009       -0.37442775118227
H            0.41260790103178       -4.45677087961048        0.82186497605177
H            0.88494860714946       -4.34850715138144        2.52293360689509
H            0.07958095939458       -2.97771761805170        1.73846912750653
H            4.02784234059795       -3.97198621166202        0.72603707282631
H            3.14629065746957       -4.92773092274527        1.92466514459210
H            2.69593346310028       -5.01797618505386        0.21649466393118
H            3.57949164966630       -1.98302079509046        2.01850950647151
H            1.90926601496194       -1.52682587468095        2.39973434031931
H            2.65824779828335       -2.91588031230507        3.20694145781910
H           -3.29691151916009       -0.52285919931013        0.30886550396612
H           -3.01901179792094       -0.18133215012636       -1.39019644646613
H           -2.82746551225260       -1.82902623859230       -0.78581528741194
