45
 energy: -47.837012550643 gnorm: 0.000284159041 xtb: 6.7.1 (edcfbbe)
C            2.07156684117004       -0.07500736840898        0.20276311070351
C            1.33593788701695       -0.08317933328708        1.53708154545223
C            1.31449478769534        1.28407340591530        2.22269677604537
C            0.59576519090764        2.38408707510040        1.43853747872952
C           -0.87920969058479        2.10545537398840        1.14299231305354
C           -1.75731435830427        1.86882397979791        2.37511295777528
C           -1.70383645323232        2.98032636763706        3.43119843328054
C           -2.11630623508415        4.37095891978372        2.93281440487795
N           -3.51289320414109        4.81671832215027        3.24099668801172
C           -4.47461696663850        3.81528243676623        2.75322310749367
C           -3.66142530435184        5.03396089328258        4.70784998563591
C           -4.98769012948165        5.67643426193851        5.09792587703082
C           -5.16467927240179        7.01088674968783        4.38251893955319
C           -5.04449425073248        6.79805795325944        2.87788292108821
C           -3.72375930529628        6.11716330726408        2.53721358236581
H            1.54841797724360        0.52673624701384       -0.53604416023415
H            2.15219098694674       -1.08689608929306       -0.18574161621236
H            3.07562225143334        0.32394112521048        0.32505876070281
H            0.31712519620629       -0.44673094830379        1.39006230398529
H            1.83477451693132       -0.78552066586586        2.20798185201253
H            0.85795755424700        1.17445003207693        3.20920660297345
H            2.34578050206698        1.60713332131957        2.38009479359300
H            0.69054250111147        3.32379653235421        1.98908447839360
H            1.10591883813262        2.52677502176033        0.48555960395422
H           -1.27335967421339        2.93638953792881        0.55032798214501
H           -0.95265593310328        1.21869733026047        0.51337334751018
H           -2.78217397588905        1.70302693968534        2.03820429190509
H           -1.43122179951357        0.94901300404579        2.86084923178377
H           -2.29982182316272        2.67642459234371        4.29205387658566
H           -0.67535385966757        3.05173565655385        3.78456844979741
H           -1.44783415344512        5.12173675816445        3.35835890222695
H           -1.99875439241890        4.40147991118041        1.84834036010312
H           -4.30332078071177        3.63037197925033        1.69461455559125
H           -4.35672390333559        2.88414507116995        3.30122259797709
H           -5.49388576343231        4.16563806311011        2.88454455678032
H           -2.84612380561565        5.68812966669967        5.02508222755478
H           -3.54901240190116        4.07612076843893        5.21627135730210
H           -4.97620635064981        5.82888392330984        6.17728053186039
H           -5.82491660940173        5.01403399387118        4.87692001636376
H           -6.13583894809477        7.43955970681269        4.62318600165485
H           -4.39963570672762        7.71311345343661        4.71814256474718
H           -5.89296374658752        6.22127199630026        2.50902980059181
H           -5.06294873782101        7.75743126555173        2.36032439298163
H           -3.66154333643167        5.93660278520882        1.46232137775646
H           -2.90410415869602        6.78065667555431        2.82240283654145
