17
 energy: -17.197155222357 gnorm: 0.000257568531 xtb: 6.7.1 (edcfbbe)
C            1.07166547881920        0.01870993144360       -0.07248659630561
N            0.58030167109435        0.00822331374039        1.31725541911950
C            1.07178545758541        1.20652335508268        2.02116316214178
C           -0.89378508026436        0.00810090880023        1.31725196161150
C            1.07154128861642       -1.20058299211321        2.00309003076627
H            0.71621551945386        0.90688492747852       -0.59226324585717
H            0.71636322995962       -0.86160346585063       -0.60556555812339
H            2.16029437270805        0.01892465023390       -0.08839310773650
H            0.71636976468751        2.10833013672134        1.52538853130517
H            0.71644163183539        1.21255608321545        3.05027013649139
H            2.16041272573923        1.22024971913904        2.02917284988931
H           -1.27158666657961       -0.87233487172646        0.80007891481792
H           -1.27166190487900        0.00037094931275        2.33828832069624
H           -1.27173372864421        0.89615337032591        0.81338644475101
H            0.71620523666265       -2.09481889845854        1.49373550770586
H            2.16017174613088       -1.21441219720234        2.01099212720924
H            0.71612925707462       -1.22210492014264        3.03196510151747
