36
 energy: -45.410050690763 gnorm: 0.000328455356 xtb: 6.7.1 (edcfbbe)
C            0.67537500108176       -0.28047649996840       -0.44626205637973
C           -0.27256441141915        0.44801701775397       -1.00866532964319
C           -1.62670965698180        0.65377921349627       -0.39531212192015
N           -1.85156575487605        2.04682399812284        0.11114316222336
C           -1.51905117464939        3.03261562425748       -0.95082627324109
C           -2.16366298778521        2.75405722132701       -2.32504308362235
O           -3.17169961145988        2.11923487269161       -2.47935885307296
O           -1.45242872621919        3.34018551638875       -3.25680859047522
C           -1.90715285923007        3.22960421989348       -4.62362404681978
C           -1.44329870883730        1.92585679009806       -5.25030393596847
C           -3.29007285181521        2.25564095883832        0.50361733557883
C           -4.03242399250695        1.06072893718023        1.08527293765464
C           -0.91609909123022        2.33604812408797        1.24658089993552
C           -1.18102901977231        1.61336364942051        2.55674496436719
H            0.54449872623548       -0.75615679128450        0.51213571135231
H            1.62159351411865       -0.44558733744211       -0.93009113347612
H           -0.11444641017457        0.88440624232614       -1.98491271255879
H           -2.39807085373619        0.45157679335020       -1.14098975822758
H           -1.75543898827113       -0.03058553975980        0.44154714887212
H           -1.85725041515034        4.02394250163983       -0.63419008725846
H           -0.43822160402662        3.07708246426912       -1.09462757754286
H           -2.99814197919748        3.29815001309781       -4.63584290250494
H           -1.46863504939766        4.09152556889875       -5.12681788840814
H           -1.89640100493874        1.07558304054367       -4.74599867475547
H           -1.74423176132999        1.90754068606019       -6.29289415475025
H           -0.36082771608313        1.84106781620865       -5.19847981175940
H           -3.30619937260279        3.08702543577843        1.21080727852302
H           -3.82834495860471        2.55292121784329       -0.39691909372606
H           -3.54642154774386        0.62079010473471        1.94834807463144
H           -5.00951795802749        1.41654016421914        1.40413534179222
H           -4.20028880484187        0.29072860649544        0.33868771901497
H            0.08658354806863        2.07843927463460        0.89696285976926
H           -0.95134558886586        3.41198421138449        1.43125599510674
H           -1.17111470635010        0.53315789504340        2.44788591534351
H           -0.37689028991757        1.87602880346351        3.24040474990205
H           -2.11280293342078        1.92435918491623        3.01847799202192
