45
 energy: -107.492039921749 gnorm: 0.000475581488 xtb: 6.7.1 (edcfbbe)
C            2.26927520292181       -2.18869354545563        0.22333297811441
C            1.46647575918276       -1.12420750716888       -0.51601385515319
C            1.02822601940189       -1.56089247794271       -1.91504306437199
C            0.16652856477051       -2.83021703997998       -1.92243353633335
N           -1.01673592695772       -2.65529498383861       -1.12061442620935
N           -1.13126964741805       -3.23229877452793        0.06801226800621
C           -2.25855329738533       -2.83239072723804        0.56314470371780
N           -2.88818348201413       -1.98994064127177       -0.30420035067329
C           -2.07158034514391       -1.89884238123271       -1.36423960879646
C           -4.13662320173698       -1.29074398042184       -0.09098591758192
C           -4.03180591140611       -0.24807317072494        1.02945438413861
C           -2.94718388559637        0.81720645509207        0.84402601019827
C           -3.01609969638153        1.74805253758681       -0.41201680249344
C           -4.33850006846314        2.52983151646818       -0.68004834840948
C           -4.88862269472016        3.50190457722739        0.40888854695735
C           -4.00764548327053        4.71838557774054        0.83173215920776
C           -3.65272559206692        5.71971661250292       -0.31900921454989
F           -4.70699463093480        5.97615849599618       -1.07973633326237
F           -3.20581565806371        6.84951875625980        0.19084029440813
F           -2.70146148170760        5.19655453250944       -1.08973712569596
F           -4.67200870140763        5.37581494949246        1.78875175640512
F           -2.86155418311387        4.26843674574937        1.37230778257478
F           -6.06933446543398        3.95310142101630       -0.03105647089490
F           -5.14689852843147        2.75673814167061        1.50571984420028
F           -4.20785429233086        3.18356233783978       -1.83916486951992
F           -5.29740377876651        1.58882531355847       -0.87331714209884
F           -1.97774458026581        2.58699512755697       -0.39278484239402
F           -2.83670100785120        0.94974538830907       -1.50136756794928
F           -2.88627909258927        1.58511928140429        1.94196094904070
F           -1.73164831224784        0.20184628646565        0.75191556236953
H            1.64940830767028       -3.03572314122369        0.50749184758322
H            2.68729786189651       -1.76590403564522        1.13240279317494
H            3.09209715387878       -2.54275308449685       -0.39253554258936
H            0.59835230741866       -0.83724186605754        0.08185516041591
H            2.08269541405839       -0.23194322088617       -0.63106086901700
H            0.48181353626306       -0.74687861750517       -2.39523399254961
H            1.91126403445069       -1.77171601086522       -2.51870304320529
H           -0.12766112448621       -3.07728080454004       -2.94449384219643
H            0.71708065735908       -3.66471701617706       -1.48762881043570
H           -2.63906262537594       -3.13434093989605        1.51780844021981
H           -2.24731482731553       -1.31742861748407       -2.24799938286095
H           -4.44383832887145       -0.83269917768001       -1.03268518763898
H           -4.90008085361360       -2.01715000401098        0.20202899671894
H           -4.99740758269761        0.24192030852914        1.15735392740853
H           -3.78516153124469       -0.73513259671826        1.97790174204706
