20
 energy: -26.085251401679 gnorm: 0.000601689145 xtb: 6.7.1 (edcfbbe)
C            0.64019430404535        0.28408593564038       -0.03321337430591
N            0.30479081175474        1.67837528502345       -0.16078754711849
C            1.12576048088202        2.73494667111231        0.13847994472200
C            0.43668128369664        3.88835378726839       -0.09215196228383
N           -0.79610094425223        3.51138935703953       -0.52086489042562
C           -0.86110109581568        2.18194087762385       -0.55674680473257
C           -2.16892614045383        1.69390488932528       -1.04674550809315
C           -3.01425545352434        2.98934570213918       -1.00402544052650
C           -2.00392097656102        4.15574538586046       -0.97894723211578
H            0.21767354425772       -0.27975825133862       -0.86368556380827
H            0.24675747880883       -0.11905128975318        0.90185833592674
H            1.72198802621524        0.16947753159282       -0.03562195301411
H            2.12735442866085        2.59311860103245        0.48980857327965
H            0.73697700991360        4.90952866826499        0.02127126738451
H           -2.59013391818527        0.90258533715572       -0.42806913727869
H           -2.07321374189497        1.30624998248953       -2.06480916481242
H           -3.61668462548335        3.00319031781650       -0.09638905696274
H           -3.68706632277420        3.06179838606197       -1.85424549902141
H           -1.83815730414076        4.57958518729951       -1.97378754471997
H           -2.30335684514934        4.95861763834553       -0.30470744209336
