59
 energy: -70.466531076728 gnorm: 0.000349964325 xtb: 6.7.1 (edcfbbe)
C            0.17378534693287       -0.32157879241627       -1.50934595130622
C            0.13784612804816       -1.48809914550161       -0.52943831209892
C            0.67860469661962       -1.12911457284928        0.85527683690677
C           -0.11807375492630       -0.05500945015859        1.59891438949797
C           -1.58234826929180       -0.40815686510160        1.86896813466426
C           -1.80223913010597       -1.69705309944216        2.66450252953680
C           -1.09490182128862       -1.75138208144272        4.02008351360844
C           -1.50896628021925       -0.65932903441193        5.00981400270383
C           -2.94242285012928       -0.79999971946139        5.52989089703815
C           -3.11933366576173       -1.92275138886970        6.55297616283043
C           -2.50462920429069       -1.60265341276651        7.93049789231831
C           -3.20425885565049       -0.49685082711514        8.62419972180652
N           -4.40070092374268       -0.58495312548064        9.22246446466775
C           -5.24264739277608       -1.74814037078998        9.31462212659913
C           -4.72001522004084        0.63551112739155        9.74399178479061
C           -3.69398536053713        1.47601555404193        9.45722069510464
N           -2.76499494783745        0.76159206517137        8.75901759418961
C           -1.49121149938269        1.28474770507125        8.31024793321928
C           -0.32467543892389        0.62185819369763        9.01097152585184
C            0.81811094013986        0.28999033339718        8.29522425424499
C            1.89660816709621       -0.29477296598473        8.93635247989084
C            1.83843471867145       -0.55653436557223       10.29457929280966
C            0.70189855755443       -0.22486230472268       11.01305699202271
C           -0.37532562125367        0.36480473758256       10.37546098536067
H           -0.50604060736959        0.47032130353183       -1.20517316607403
H           -0.12083445668665       -0.65506202371703       -2.50141627706733
H            1.17837049113848        0.09105073632898       -1.57224332166557
H           -0.88384508640707       -1.86280584979874       -0.44572717003520
H            0.74874436539232       -2.30102272158983       -0.92885574176185
H            0.71935957834899       -2.03680640852859        1.46135072644149
H            1.70466970700659       -0.76969873030946        0.74348718106624
H            0.38697316880517        0.15185750312664        2.54579895982232
H           -0.09424763468505        0.86988822188102        1.02018112133590
H           -2.04770949380901        0.43013415505510        2.39403848613949
H           -2.10547094420670       -0.50931510799643        0.91696340487932
H           -2.87729231707187       -1.83486763645069        2.80368148354608
H           -1.45108934895020       -2.54294013827996        2.07205616434008
H           -1.27630843781105       -2.73311940472672        4.46360640225383
H           -0.01938414669096       -1.67076458960675        3.85840275684837
H           -0.80789079519581       -0.68248520926079        5.84813439488484
H           -1.40580356797783        0.31122258170226        4.52318055657128
H           -3.27437923357683        0.14583414450707        5.96840619752757
H           -3.59887509714621       -1.00190612650853        4.68366535367988
H           -4.18214350057343       -2.13713158608729        6.67159168247892
H           -2.64329008807569       -2.82817776435592        6.17893833693994
H           -2.55614514175382       -2.49906364894660        8.55326120123808
H           -1.45243827976076       -1.34579252861703        7.81450871860314
H           -5.92866314071235       -1.79406591366500        8.46694095619402
H           -4.63991949481492       -2.65408376290590        9.32914884794109
H           -5.82820826398535       -1.69550515190510       10.23083392822950
H           -5.63432303593193        0.81352220160141       10.27119133214053
H           -3.56326778046184        2.51145079831182        9.69554907347828
H           -1.40300118700035        1.15106688544498        7.22912256966118
H           -1.48841639986461        2.35770146733005        8.52180657185959
H            0.87209444145461        0.50158173872708        7.23715718167316
H            2.78174267236950       -0.54454881939241        8.37276583639350
H            2.67889884485037       -1.01197210129172       10.79381028334513
H            0.65525479112966       -0.41783772328373       12.07345806524072
H           -1.25356889902907        0.63261301534179       10.94662795550773
