70
 energy: -79.102202593463 gnorm: 0.000349834776 xtb: 6.7.1 (edcfbbe)
C            1.96348099341987        0.20091142308472        0.30624796818647
C            1.79735319947369        0.33706395152258       -1.20266709497356
C            1.86799393862998       -1.00097163132644       -1.94009056362397
C            0.77111671703778       -2.00051231895346       -1.56822662821934
C           -0.65656235427552       -1.52846542652340       -1.84948193148893
C           -0.95252530770954       -1.19662465306578       -3.31368057636180
C           -0.69641090812855       -2.33809728588038       -4.30008557930909
C           -1.44950892435854       -3.63480939693118       -3.99772878872485
C           -2.97315328572576       -3.50509416086298       -3.96727777518049
C           -3.61108357482559       -3.05691952445374       -5.28362318326068
C           -3.32656002677998       -3.96369469755329       -6.48328756508010
C           -3.70910415336438       -5.43221398316194       -6.28648573252055
C           -5.17565570261428       -5.67595853725192       -5.92632179660839
C           -6.19345194393859       -5.16876227806826       -6.95048241516616
C           -6.05709453407992       -5.78421231015658       -8.34921348938100
C           -6.30206122782988       -7.29928291173335       -8.38156896778155
N           -7.59546430024366       -7.74571493217722       -8.97553803232130
C           -7.78086538923231       -7.27734933680868      -10.38269883868029
C           -6.54810547710264       -7.34009582701491      -11.29002111138273
O           -6.03835969859544       -8.65420730448213      -11.33880623892266
C           -7.65899733759731       -9.24444268697541       -8.98211548384820
C           -7.12012789631211       -9.96596486293656       -7.74281615703063
O           -7.69526956610206       -9.44194374608809       -6.56579080242020
C           -8.72007967248696       -7.22591150296681       -8.17205585181484
H            1.12639240836200       -0.33438496216348        0.74715658444312
H            2.01646996897442        1.18340873688534        0.76975116899336
H            2.87930264585317       -0.33757093929635        0.54088406630995
H            0.85015997270780        0.83309804056120       -1.42159401028699
H            2.59479503927993        0.97739028010238       -1.58778880399404
H            1.83446372446970       -0.81027308476405       -3.01482010866876
H            2.83415497142296       -1.46472319553800       -1.72421834343057
H            0.95768538039431       -2.92911973066969       -2.11211975866368
H            0.84867851002691       -2.23525186874142       -0.50490922717482
H           -1.34587719242330       -2.30472740732891       -1.50900509085679
H           -0.86375981824591       -0.63850308901580       -1.25217929860641
H           -1.99600492033292       -0.88124384649031       -3.38817887080277
H           -0.34213789367782       -0.34409363520453       -3.61781112999440
H           -0.95962622472214       -1.99034631568130       -5.30186757274824
H            0.37152155281233       -2.56420537025112       -4.31370000505003
H           -1.16251544842384       -4.37969432891006       -4.74372966535730
H           -1.12465720890940       -4.01641473090749       -3.02821015831001
H           -3.39304828945145       -4.46890392871332       -3.66948819236824
H           -3.25396265153262       -2.78646998607723       -3.19571537397322
H           -4.69073255295981       -2.98152074679715       -5.13206384632320
H           -3.25573471799683       -2.05479077794753       -5.52892233864195
H           -3.85249530058354       -3.55898270384627       -7.35187653448268
H           -2.26068861197376       -3.92398099518053       -6.71323447279210
H           -3.45486317444175       -5.98321509221956       -7.19594785982969
H           -3.09747432398559       -5.85055569284182       -5.48635471123382
H           -5.31321544446400       -6.74782151754978       -5.76046045904070
H           -5.39170077997777       -5.18416007664768       -4.97789691703728
H           -7.19400712697048       -5.35295069664825       -6.55395799941393
H           -6.07965537730775       -4.08927299860742       -7.05016864400069
H           -6.73060469167639       -5.25838019419804       -9.02589385886681
H           -5.04554566457347       -5.58753453274982       -8.70429743902444
H           -5.51195891191098       -7.80868116635594       -8.93354465823087
H           -6.29665328748868       -7.66260184898638       -7.35462339133383
H           -8.56944821342956       -7.88990953575920      -10.82430416196061
H           -8.12315636237504       -6.24203693131720      -10.36732837532621
H           -6.88116400464255       -7.01279810340840      -12.28282867765956
H           -5.77471240328957       -6.64135699422737      -10.94709404542685
H           -5.42404387103042       -8.73984495531140      -12.07532479108878
H           -8.70818211280042       -9.51495281141764       -9.11188312965298
H           -7.08599959547048       -9.60130010301296       -9.83860254827868
H           -7.38396168631329      -11.02257120682510       -7.87210446788643
H           -6.02497062565747       -9.90060959914035       -7.69651316810547
H           -7.55117351643989      -10.04840272344009       -5.83224442863109
H           -8.67692460606685       -7.66301343202673       -7.17666463701600
H           -8.66286772151454       -6.14341981535188       -8.09822642821287
H           -9.66674340815987       -7.49611144507551       -8.63618758471402
