54
 energy: -67.682585147061 gnorm: 0.000331777602 xtb: 6.7.1 (edcfbbe)
C            1.05159103980578       -0.76107700362463        0.84557186866221
C            0.72355433875050       -0.38335436562117        2.28586038266427
C            1.13483026474841        1.04384953036948        2.65094563208673
C            0.49015238914669        2.14132722390712        1.80271600662634
C           -1.03677781078654        2.17277387046665        1.94144651543619
C           -1.49772088909582        2.38127735903898        3.37606967408286
C           -1.06427389693378        3.47698171049938        4.11195069654829
C           -1.48028456382801        3.64896223262752        5.42025550917155
C           -2.34058015477023        2.73372749398528        6.00277046309543
C           -2.78549945742169        1.64700102336954        5.26990711063935
C           -2.37047936529962        1.47403734206109        3.96092739881147
C           -1.68206119527381        3.28609902121641        1.17510245909008
O           -2.75083423124742        3.22165417046685        0.61331521887341
O           -0.95724488645418        4.42697742451759        1.17269055781079
C           -1.59216201769609        5.60362236106786        0.70025553522790
C           -1.07980888438238        6.07380427130851       -0.66560203914708
N           -1.53263784043986        5.33888815103042       -1.88398352579034
C           -3.01945292491577        5.13783830800281       -1.90948997449520
C           -3.86057269937436        6.40204479390291       -1.83487171230628
C           -1.13174248024794        6.12934837671467       -3.09205692855669
C            0.36439128476135        6.28633017801589       -3.31749733153205
C           -0.90931587032651        4.00111264321278       -1.94982829828706
H            0.43394659220961       -0.21212334148575        0.13784129309129
H            0.87460635248915       -1.82179295779660        0.68839686554029
H            2.09700608959544       -0.55525161949618        0.62669864369234
H           -0.34242129722358       -0.52461717809742        2.46983985376190
H            1.25554417515134       -1.06139580607079        2.95535495115691
H            0.89030476192088        1.22094851753135        3.70019244496716
H            2.21814242446639        1.13210751201621        2.54399150552302
H            0.90113166243807        3.10296345886197        2.11096797940176
H            0.74710105876811        1.99053554463156        0.75202108954045
H           -1.46845858376598        1.23889843267742        1.57251389839705
H           -0.39503908598417        4.19802134749877        3.66593071750883
H           -1.13182588233872        4.50040231740304        5.98515455866017
H           -2.66420225324163        2.86881645209454        7.02314691560328
H           -3.45770287924116        0.93061465361459        5.71645548150888
H           -2.72439434035376        0.62492322120689        3.39502767179326
H           -2.67598213241596        5.45767759185178        0.71603681792382
H           -1.33144870489497        6.38708035613064        1.41890332273834
H           -1.37862659574263        7.11698668800195       -0.77842360340157
H            0.01027338496082        6.02747801793968       -0.63722718013444
H           -3.25149886509975        4.60871798984843       -2.83595996833013
H           -3.27852322804945        4.47372564107014       -1.08080866747733
H           -3.73808509788195        7.03925756442492       -2.70617196448105
H           -4.90383842715293        6.09750383823273       -1.80325125318882
H           -3.66567644954698        6.98254422413390       -0.93797606674337
H           -1.56878360587927        5.63103942248422       -3.95998749703233
H           -1.58025198818821        7.11944163709546       -3.00629893666199
H            0.86299725134749        5.33511149441969       -3.47610079425737
H            0.49996630588628        6.87630599047229       -4.22078283249731
H            0.85525608211039        6.81921119478895       -2.50872232198989
H           -1.04388616288406        3.58017591264957       -2.94454111729943
H            0.15320978288789        4.06094325772534       -1.72750531020320
H           -1.37994049312929        3.33167250755099       -1.23509171577066
