36
 energy: -40.242582999257 gnorm: 0.000865993931 xtb: 6.7.1 (edcfbbe)
C            0.75751735274397       -1.02812663860505       -1.64013939217265
C            0.14977432354819        0.36681122657575       -1.55193736145281
O            0.83312497582465        1.23697558696140       -0.65726918313557
C            2.09927278384958        1.66420154892083       -1.09679277749236
C            2.60122345860021        2.82691082270607       -0.23019587796661
N            2.49121375279807        2.63351810960514        1.24362825675484
C            2.91853210775629        1.25140172244282        1.64025142071577
C            4.37322759454128        0.89348094299523        1.36993859545150
C            3.39674041196316        3.60507188251813        1.93566110534286
C            3.04442090559107        5.07885294517602        1.81547902156390
C            1.07486803961215        2.78849506047438        1.73963989635735
C            0.16488584728300        3.76291368121044        1.00567138623474
H            0.10636131851304       -1.65865765498931       -2.23746688040491
H            0.84800931227489       -1.46802884398058       -0.64907041182760
H            1.73728343404597       -1.01005236540209       -2.11265861240020
H            0.10722752114019        0.82655568488022       -2.54785322681533
H           -0.86219351871497        0.30986485413787       -1.14524000657843
H            2.81685613505824        0.83289928184221       -1.08577847657304
H            2.04045672416197        2.03346502579077       -2.13170205429944
H            3.64985507512853        2.99458007321553       -0.48066729498401
H            2.04215187905809        3.72472775025928       -0.48510477521927
H            2.72342604873872        1.14863391143519        2.71003917437384
H            2.26518090105803        0.55642969799920        1.11277169622795
H            5.05931731516118        1.41442595807992        2.03126362235282
H            4.49109954418733       -0.17069188381818        1.55933816213868
H            4.66603430387864        1.07634971904466        0.34047290119431
H            3.41144217721083        3.33289105014154        2.99355117973953
H            4.39959376574973        3.45734019599060        1.53353540133450
H            2.12290015944894        5.32616220388268        2.33266899123829
H            3.84256708981197        5.64500379684019        2.29035771553105
H            2.98398478806319        5.40756096247521        0.78228875367286
H            0.59923290776952        1.81067278052953        1.66805197090705
H            1.14403745313355        3.06579142142270        2.79278743948295
H           -0.09310479417164        3.38411438759304        0.02138713709731
H           -0.75757517992871        3.82627016634771        1.57856111066779
H            0.56653408511241        4.76664493529979        0.92072139294080
