42
 energy: -121.177342902573 gnorm: 0.000661708370 xtb: 6.7.1 (edcfbbe)
C           -0.75597430750398        1.05950394646295        0.32502165092767
N           -0.10282737355368        1.19546395722163       -0.94586990987986
N           -0.69262995513426        0.74129049435164       -2.04078860643373
C            0.11065540770832        1.00239208199661       -3.02869223414173
N            1.24267376657741        1.62308903548221       -2.57479729263268
C            1.07569398329759        1.74291261423446       -1.24094063863015
C            2.01656208540344        2.35882709576499       -0.29544415663344
C            2.39082367014813        2.05602778761711       -3.33200200500761
C           -0.21856807286142        0.61722599080311       -4.44562381633621
C           -1.64929204792949        1.09928643157268       -4.88171062853271
C           -1.87875910330664        2.64875675586080       -4.81415061608013
C           -1.10321147532804        3.60721197706685       -5.77724956637466
C           -1.11795935720181        3.38353641638114       -7.32225629674342
C           -2.49873696620455        3.39112020113175       -8.05655559127573
C           -3.30454108353704        4.73119476107451       -8.10217650525254
C           -2.56553082065645        5.96208633218372       -8.72918167514249
F           -1.84511854062035        5.60699977368782       -9.78382617111268
F           -3.44397556135860        6.87237517538199       -9.09963861751923
F           -1.74991209465815        6.50582688927066       -7.82935380815295
F           -4.41520076364510        4.49430870245938       -8.80949401441796
F           -3.68687756282364        5.05030576136854       -6.85172246101231
F           -2.27736353994430        2.97966302913288       -9.30929783060658
F           -3.28454454461522        2.46975362859327       -7.46726409175463
F           -0.32665156718999        4.32991781835861       -7.85027394652066
F           -0.52528637817238        2.20511755505906       -7.57533932633118
F           -1.52496942984622        4.84860065719440       -5.50734710907661
F            0.19355770666129        3.56680894291920       -5.38356878397194
F           -3.18410704884550        2.89040588845229       -4.90012709390327
F           -1.49087471204193        3.04140068559113       -3.56680290378762
F           -1.90356201656588        0.63969251186757       -6.10818203104825
F           -2.54584844584541        0.54821116545731       -4.04927377319113
F            0.69448432172745        1.09716364088283       -5.31025558477544
F           -0.18583157039649       -0.72101139630897       -4.56317374997379
H           -1.68657777698196        0.52185919263926        0.15139995024966
H           -0.98213611984483        2.03871893747659        0.74755464711908
H           -0.13513400441587        0.49432221657463        1.01990834529370
H            2.94424958777750        1.78648997672616       -0.24595974485227
H            2.26751885697468        3.37229754177363       -0.60873155452346
H            1.58651392969324        2.40036864268784        0.70105389818352
H            2.12038646628817        2.87956565815682       -3.99362979594818
H            3.17144671382187        2.38077710648557       -2.65009223027691
H            2.76670574494423        1.23733441890741       -3.94513432991134
