16
 energy: -24.651892405385 gnorm: 0.000444575774 xtb: 6.7.1 (edcfbbe)
C            1.02919653972340        0.07622316935450       -0.09005690238553
N            0.68086389851464        1.13261037399542       -0.99318982715371
N            0.06780126019206        0.89184098494184       -2.14139087813211
N           -0.12094760138227        1.97029900687194       -2.74819846823615
N            0.35720886904788        2.96859450542739       -2.00430810617287
C            0.87113970911332        2.45832362892072       -0.86910478293120
C            1.49144221716723        3.20791817666009        0.22808979875841
N            0.20688712834076        4.26420531237542       -2.34343592580422
H            0.71670187237931       -0.86066616106447       -0.54787529914066
H            0.51400101931925        0.20261501862221        0.86270901172008
H            2.10574946495260        0.05805894054130        0.08033886374690
H            2.52926052287805        3.45174778308491       -0.00616614541942
H            0.95463123821774        4.14161154577578        0.39043895919624
H            1.48240226538818        2.62440666267069        1.14482443340379
H            1.04115004615122        4.83406859818056       -2.25648851221835
H           -0.25303845000330        4.35670245364164       -3.24389621923124
