22
 energy: -26.568412491763 gnorm: 0.000393167478 xtb: 6.7.1 (edcfbbe)
C            1.23314428427362        0.12509382971728        0.08008501587801
N            0.50879636141947        1.38367204735215        0.34378934116619
C           -0.93767872454851        1.09913479684104        0.29131390874437
C            0.90469422279312        1.90209955029854        1.68488097786309
C            0.39753081236799        3.32921666698148        1.92982339702260
O            0.84849111489660        4.19632055172867        0.92440946971873
C            0.38746222101101        3.79872653351305       -0.33870728924523
C            0.89418696688164        2.39252196441514       -0.68466818518390
H            0.96682801033571       -0.26035688075302       -0.90277770871129
H            0.97439174542214       -0.61934723682090        0.83132990708106
H            2.30915810671613        0.28814772097657        0.10914672687251
H           -1.20298081733265        0.71205680984974       -0.69111372951032
H           -1.19528715253651        0.35339727473119        1.04157541233789
H           -1.52265252854513        1.99537634828477        0.47943149541617
H            1.99611375032089        1.91819157630584        1.72715015793394
H            0.52882494591882        1.22893725210945        2.45611420434102
H            0.81638072871384        3.69989152578760        2.86701693116121
H           -0.69861033883888        3.35658130959462        2.00693106366063
H           -0.70924633978663        3.85250814975788       -0.38928261409080
H            0.79896391553962        4.51168654621319       -1.05531146377280
H            0.51059422168457        2.08011959559989       -1.65651552687918
H            1.98523449329311        2.42599406751581       -0.72635149180390
