43
 energy: -51.970232495577 gnorm: 0.000483658712 xtb: 6.7.1 (edcfbbe)
C           -0.40458022224992       -0.56025062637802        0.61504563052522
C           -0.11965489915314        0.76709326644802       -0.07753374027094
C            0.87311283392131        0.64621972260385       -1.23549788057611
C            0.42555549881347       -0.26572428683417       -2.38094286923930
C           -0.83102628093049        0.21129127052330       -3.11901855085699
C           -0.62805633355038        1.50107431802675       -3.92092934649289
N           -0.38599417891801        1.34865658138870       -5.39558245498172
C            0.02359927921510        2.67913254218966       -5.92487347211181
C           -0.74376468212409        3.34117901731006       -6.87244424386290
C           -0.36046602134436        4.57189941190808       -7.37785060893322
C            0.80820214193161        5.16063081109631       -6.93799610003005
C            1.58528864232694        4.52012430135492       -5.99279347676354
C            1.21477341139226        3.28394198078921       -5.47140081499677
O            1.95373486165097        2.63213784641320       -4.53165303661337
C            3.15564634381606        3.21285767501828       -4.05342951066434
C           -1.62346060886149        0.84961706881111       -6.02497022576277
C            0.68476652025668        0.37668287721109       -5.70358454592972
H           -0.94587586782701       -1.24294633105966       -0.03527407195622
H           -1.00987074907028       -0.39482373390003        1.50217399533564
H            0.52383147142665       -1.03635051469939        0.92125281006058
H           -1.05641601349676        1.20837384359224       -0.42449410878387
H            0.30631125069763        1.45770950304215        0.65268805731810
H            1.08845361445963        1.64812239719885       -1.61586365286901
H            1.80921754868131        0.24512853173150       -0.84221115055424
H            1.25619395361356       -0.36942644222812       -3.08056164469333
H            0.22228913318364       -1.25645589242961       -1.97500658616947
H           -1.19860498432463       -0.59988169810939       -3.74742035594633
H           -1.60918659260902        0.39872654151129       -2.37938253863349
H           -1.50143955277194        2.14992970334539       -3.82988429497890
H            0.22807222315793        2.02564111818972       -3.50148994950600
H           -1.66016516505937        2.92094411339021       -7.24641572252924
H           -0.97932965614733        5.05868424123719       -8.11308846774498
H            1.12000398317959        6.11713408805280       -7.32470731458324
H            2.49385101919153        4.98969417408393       -5.65616690073991
H            2.96904364787993        4.17337432293985       -3.56884231252287
H            3.53874830394219        2.50661350747933       -3.31876385455593
H            3.88602042130014        3.33282939421079       -4.85608781194170
H           -2.45586895773406        1.52097884899156       -5.82521898002207
H           -1.48533989673167        0.73799833817557       -7.09854817657204
H           -1.86887907768324       -0.12586200719953       -5.61143537188090
H            1.60194952376167        0.66062349294425       -5.19610248625840
H            0.39237463582274       -0.62091926734920       -5.38662904637347
H            0.86095947693408        0.37071594898807       -6.77835481531218
