50
 energy: -51.998589154322 gnorm: 0.000222336619 xtb: 6.7.1 (edcfbbe)
C            0.72141713173446        0.75189125876417        0.12869193208137
C            0.70785974416192        0.53483679505517       -1.37964848227003
C            1.15742389682471       -0.86797725031946       -1.79129977446074
C            0.28260010402144       -2.00658805688758       -1.26262264036653
C           -1.18357115220562       -1.95112713065835       -1.69638631610303
C           -1.41056835859690       -1.96479647789393       -3.20988827903053
C           -0.81405074804386       -3.17224747918727       -3.93865925730462
C           -1.30180267797320       -4.53421616562715       -3.43659041228894
C           -2.81782892635916       -4.77086872188384       -3.51277154263648
C           -3.47119838717454       -4.50644434039063       -4.88682486702127
N           -3.31304302295534       -5.44368067527902       -6.05391407285466
C           -4.16114027832033       -6.64203899080780       -5.91291792849474
C           -3.75933173165380       -4.71173717282001       -7.25843973572075
C           -1.91970473845255       -5.86933633631963       -6.26087421114748
C           -3.21512683858156       -6.10436954614531       -2.86192179694904
C           -3.04989421758485       -6.08726001347817       -1.34390164755922
H           -0.02721194075256        0.13826910694436        0.62354106448988
H            0.50887850288215        1.79280020508152        0.35983429714166
H            1.69754306321143        0.50379775369072        0.53928289956167
H           -0.29204672395839        0.73759393045649       -1.76831396970688
H            1.38642727824764        1.25400113592747       -1.84394862985874
H            1.20233398269614       -0.91602915825862       -2.88189598046534
H            2.17271966833721       -1.02756478659393       -1.42095231884051
H            0.72430050835991       -2.95394763040191       -1.58094650810802
H            0.31062264796826       -1.99675542589078       -0.17225436953533
H           -1.71046081050163       -2.79116294028860       -1.23733989506256
H           -1.63677520264282       -1.04178740456847       -1.29978986713647
H           -2.48687977286582       -1.90910798831579       -3.39633692475253
H           -0.96967071456063       -1.06469731296171       -3.64033290921985
H           -1.00457266655703       -3.05803022667723       -5.01055890016422
H            0.26921237064157       -3.14994104103122       -3.81630947175198
H           -0.74871025384380       -5.32065300880922       -3.94997834097490
H           -1.02722538912822       -4.60754717607812       -2.38570447739064
H           -3.27300613330882       -3.98693086611010       -2.89545158524754
H           -4.54797955112308       -4.41791959353356       -4.72482575737831
H           -3.10475134872792       -3.53425685166206       -5.21992628087870
H           -5.20252840557994       -6.35522179261022       -5.77971716059111
H           -4.08340591406700       -7.25630043954759       -6.80886250897421
H           -3.84708320133676       -7.23554725866469       -5.05973002489078
H           -3.10196876491151       -3.86679628026222       -7.45592448058956
H           -3.74371732607399       -5.37042188220954       -8.12523592238006
H           -4.77401391780654       -4.34140494264412       -7.12310511315367
H           -1.26176486287051       -5.00379484098016       -6.29445559429931
H           -1.60470699118756       -6.52851024851055       -5.45662558506059
H           -1.83442384697229       -6.41035952444075       -7.20247493209032
H           -4.26834526490197       -6.30438443740404       -3.07143818765835
H           -2.61254512179929       -6.92420997009800       -3.26086915071989
H           -3.60379325164673       -5.26019629655191       -0.90696508649198
H           -3.43450835249061       -7.01217496657763       -0.92292249851658
H           -2.00736209158315       -5.99917753652847       -1.05385679718499
