25
 energy: -29.705220360121 gnorm: 0.000341848418 xtb: 6.7.1 (edcfbbe)
C            0.63308834750008       -0.24320757721525        0.48497699530073
C            0.80195768871858       -1.37261050796004       -0.51946976035504
O            1.31133970910985       -2.57008660247446        0.07841221559965
C            2.61103739453460       -2.66382669741699        0.38138653466564
C            3.58923832961159       -1.80342060246165        0.14965313954381
N            2.87555709844490       -3.96781176074504        1.07400288016588
C            3.33123091536804       -3.69042066899995        2.45130039414845
C            1.65635819357803       -4.80013480446586        1.14059710039605
C            3.91080167780836       -4.72043201952721        0.33734635988271
H           -0.02706434131410       -0.55126482569091        1.29153454203602
H            0.18749058269213        0.61019202722300       -0.01637173611010
H            1.58523497116796        0.06365915404867        0.90974475832687
H           -0.17037413013071       -1.67637275479730       -0.91216670397617
H            1.44334452463586       -1.07564747519255       -1.35448052690534
H            4.60830580117755       -1.98276741197283        0.42853348749493
H            3.40405442778410       -0.86958657451750       -0.34493592185195
H            2.56273060295570       -3.13683070599288        2.98828409497359
H            3.52383914031920       -4.62606565410476        2.97351362410392
H            4.24331347905817       -3.09850620621770        2.44070362075476
H            1.88804289743294       -5.73325673339373        1.64965173123154
H            0.87127578158663       -4.28070046744922        1.68516826491582
H            1.29404167803203       -5.01824832415165        0.13835834578601
H            3.58423120865585       -4.88906324246024       -0.68727179042407
H            4.84882563027394       -4.17197979007881        0.31809774994234
H            4.07930839099852       -5.68221977398506        0.81847060035403
