26
 energy: -35.121794482640 gnorm: 0.000895565550 xtb: 6.7.1 (edcfbbe)
C            1.12651117752581        0.30476897110972        0.67023019304176
C            0.58803699910787       -1.13568027219890        0.67268492413739
C            0.85138908388587       -1.70519589041107        2.03693217408871
C           -0.19560304978172       -1.36922435598665        3.14352661477654
N            0.09096185231232       -2.17811528689449        4.29570540244627
C            1.27846470582924       -2.02010421173649        4.89921506493078
C            1.69014619224119       -2.88361042986062        5.89525387328750
C            0.86314462877303       -3.93081139985361        6.27305229820035
C           -0.36829457839833       -4.07179074803331        5.64018004726270
C           -0.71995399269299       -3.18782305205942        4.64547241904990
O            1.82802450757920       -2.32998343729369        2.34021890035698
C           -0.87147791476120       -1.17273335227401        0.22867987000297
H            0.51905783519828        0.95179927339614        1.29890994395489
H            1.09452427291736        0.69080550490776       -0.34425073484384
H            2.15735865851219        0.33687466747211        1.01313384529120
H            1.19583414619443       -1.72340700139206       -0.02271202199730
H           -0.08346515202527       -0.30623211673479        3.37496235443451
H           -1.20704069740048       -1.55307590025837        2.78406287789111
H            1.88998114478437       -1.18587342700595        4.59179434589901
H            2.65167013456425       -2.73656870188658        6.36067165166133
H            1.16583071241035       -4.62205030410682        7.04350173401066
H           -1.04377378020088       -4.86759699220035        5.90889394260290
H           -1.65731520238109       -3.27772992177113        4.11656055652710
H           -0.92604396449969       -0.88602178242432       -0.81794560438528
H           -1.28617472677056       -2.17402607296593        0.31794043104556
H           -1.48323299292224       -0.47198375953802        0.79154489632697
