22
 energy: -27.878042230909 gnorm: 0.000406227482 xtb: 6.7.1 (edcfbbe)
C            0.99514977011807       -0.00318498934664       -0.03106998143317
C            0.29197315189064       -0.74507252936189       -0.86381099359320
C           -1.21202729515988       -0.69124041216178       -0.96085863492626
N           -1.60727414464406       -0.32770481298787       -2.31617936950063
C           -1.94674835006594       -1.27241768443118       -3.19546041310784
C           -2.25740303160019       -0.93957045099871       -4.50016610927122
C           -2.21086462005000        0.38660807142109       -4.89403609611890
C           -1.84896540867082        1.37211651880575       -3.96983581860386
C           -1.55188433014414        0.95801027948518       -2.68086412117695
C           -1.77034716418503        2.80568222904087       -4.35441520813288
H            0.53503364289574        0.69818930100709        0.64550858439910
H            2.06596257388088       -0.08498546327035        0.02475420148344
H            0.76961025354784       -1.45230460919927       -1.52727598144452
H           -1.63559091723016       -1.66938955389238       -0.72040722625411
H           -1.60684777389921        0.04684389822150       -0.25991364826110
H           -1.97202824397694       -2.29452251788227       -2.84893588739943
H           -2.53441387079406       -1.71557241846265       -5.19529223895226
H           -2.45265082439180        0.66439140325704       -5.90831486852089
H           -1.25891541646116        1.66783759158716       -1.92095047950055
H           -0.88459747140809        2.97309575986266       -4.96750347108474
H           -2.63363664967075        3.08968288072810       -4.95172274891676
H           -1.70950387998089        3.45116750857849       -3.48353948968329
