35
 energy: -47.021180379731 gnorm: 0.000431883225 xtb: 6.7.1 (edcfbbe)
C            1.84413498218022       -0.70339439788839       -0.09082667580371
C            0.98504190288735       -1.50673885417803        0.50518797577015
C           -0.40717908357349       -1.08937920490421        0.90476287071249
N           -1.39370660075615       -1.98732070166890        0.31550471711314
C           -2.14009246092565       -2.78726570630702        1.08041869366746
C           -3.03082324560505       -3.68009665269330        0.51496782361482
C           -3.15015873129013       -3.74366545927687       -0.86407619290675
C           -2.37179636074326       -2.89226296542221       -1.65281937699089
C           -1.49197167308055       -2.03366246116688       -1.01829747088438
C           -2.24071956445946       -3.09699965686147       -3.15466192088258
O           -1.28126625905222       -3.75525568145408       -3.50291974063344
N           -3.17252020764927       -2.58208446032839       -3.95612789257006
C           -4.25728062572731       -1.74501792466758       -3.48725835725171
C           -3.98516136362612       -0.25741153855003       -3.69759211916481
C           -3.02705369335946       -2.81298160117551       -5.39118319096749
C           -1.90858866241330       -1.98426049606735       -6.01240422435538
H            1.60464761124836        0.31869496659760       -0.33527806528231
H            2.83811862254055       -1.03145674079935       -0.33737829119522
H            1.24763962111411       -2.52489193135600        0.75460865618597
H           -0.50886972703746       -1.12018384215857        1.99241160228441
H           -0.60340250514968       -0.06960824358187        0.56309309471008
H           -2.01760731095901       -2.71459851202194        2.15088027573231
H           -3.61622700202248       -4.32300648500760        1.15264066131635
H           -3.82464084893202       -4.44740984803582       -1.32762406522360
H           -0.83405264219126       -1.38731665157587       -1.58165428015526
H           -5.16639171508606       -2.02969872978737       -4.02361939486240
H           -4.41874329707829       -1.93986992275115       -2.42374134639665
H           -3.92734937029855       -0.02145132063436       -4.75568944134125
H           -4.79265568635926        0.32584759518172       -3.26435408977125
H           -3.05020410016229        0.03386350641397       -3.22380213095147
H           -2.79984423928005       -3.87295079226517       -5.53251017017681
H           -3.98325893777908       -2.58722066401210       -5.86328875867449
H           -0.95664830122529       -2.24631273074136       -5.55925426596262
H           -1.85268379756393       -2.20082046691496       -7.07499814583909
H           -2.08206472658693       -0.91927142393892       -5.88522676286469
