36
 energy: -54.857039933007 gnorm: 0.000890190115 xtb: 6.7.1 (edcfbbe)
O            2.18708756441245       -1.08832553368821        0.00203012729902
C            3.33740784773009       -0.74042372820846        0.14769660995641
C            4.19821910549588       -1.16431650420544        1.24906885972115
C            5.49416351384052       -0.67620802694017        1.44859896055419
C            6.24036375036206       -1.12125541473440        2.52179722856094
C            5.71418286552264       -2.05361516590871        3.40529486625085
C            4.43079145606165       -2.54407148338975        3.21680441385561
C            3.67693530556186       -2.10281706873466        2.14877542778168
C            3.94427625029436        0.23693434704970       -0.89317072786041
N            3.01561081440014        0.38179292815682       -1.97888980728152
C            3.09103117640878       -0.27650931267383       -3.19265438101211
C            4.10501199608736       -1.00661665483496       -3.79786325783502
C            3.84485450259889       -1.52743371860277       -5.04971698798814
C            2.61886636777759       -1.33228361658210       -5.68884023518212
C            1.60271723474022       -0.60929972317589       -5.09813088379355
C            1.85640612358526       -0.08666373650414       -3.83732049355191
N            1.08415385953331        0.66602446745670       -2.97175431756268
C            1.79537467862555        0.92717446311759       -1.86773876309184
C            1.27346652069060        1.72788382657116       -0.74765204759709
N           -0.19570897342673        1.14343714996345       -3.17647285882135
H            5.92302323244748        0.05402423821197        0.78012402869695
H            7.23850456601811       -0.74044190322986        2.67344177879580
H            6.30601450147970       -2.39515025594394        4.24044511254956
H            4.02085376876843       -3.26804950826304        3.90348376051204
H            2.67614971350893       -2.47235307668283        1.98422257143158
H            4.12331990953447        1.20200282432716       -0.41162963409894
H            4.88487792808982       -0.15196092315601       -1.28106489490811
H            5.05755999513678       -1.16787133992218       -3.32030335107534
H            4.60829378065058       -2.10194279468659       -5.54906026866732
H            2.46338216440276       -1.75950905300484       -6.66629848713659
H            0.65794726704098       -0.46598158969452       -5.59781639687936
H            0.85786602551797        1.07625561309087        0.02276408443466
H            2.06028163529549        2.32527100905779       -0.29321612781421
H            0.48308710031652        2.38071709674931       -1.11313226632653
H           -0.88576384362511        0.63693700187468       -2.62524776566589
H           -0.43877970488752        1.10638516714063       -4.16120387624852
