42
 energy: -62.019337276084 gnorm: 0.000619900142 xtb: 6.7.1 (edcfbbe)
O            1.53972621864933        1.21442439747972        0.86814607845275
C            2.53424116488137        0.87908456282066        0.26616803590507
C            2.91409041747125        1.38226913324637       -1.05104165972206
C            4.07266127495983        0.98385537574964       -1.72653234957639
C            4.35717768057448        1.50577232211293       -2.97267077527589
C            3.50080139332936        2.42610675082965       -3.56142526941925
C            2.35053095141088        2.82889770236651       -2.90000084409588
C            2.05789311297510        2.31203405218262       -1.65455782439147
C            3.48884811725316       -0.14589462277617        0.93665841252901
N            2.90700867636743       -0.53910983882087        2.19082611354431
C            1.94514317974886       -1.49942300556177        2.31616087186893
C            1.44346887258082       -1.40997923957332        3.57449251319765
N            2.08763346001346       -0.38233424325142        4.19668713435611
C            2.96903337735057        0.15084483621099        3.34091134460575
C            3.87021382265279        1.26569055243898        3.65021258827548
C            5.18941559827122        1.12388386338770        3.50035612002902
C            3.23018946027972        2.50159088503305        4.13367751166519
C            1.98169146458572        2.88100211063185        3.63990460659613
C            1.38954136501249        4.05247782504082        4.07465485692442
C            2.02606538058995        4.85069535758744        5.01114660305561
C            3.26204525978261        4.47444827057990        5.51259324237294
C            3.86316472049936        3.30836654425318        5.07812199637927
C            1.84405702594176        0.05166956949482        5.54634713499121
H            4.75410556302660        0.27046979129367       -1.28951432588765
H            5.25137749335558        1.19539263348338       -3.49110632310887
H            3.73279809515150        2.82757242392992       -4.53573226012090
H            1.68461544584235        3.54435572160821       -3.35685712488869
H            1.16677981640999        2.61133279945250       -1.12395444345897
H            3.60289335170407       -1.02429422687041        0.30010297373895
H            4.45835894636930        0.32622365012381        1.10003085136452
H            1.69162666611307       -2.16416932471031        1.51632604438669
H            0.68693953478116       -1.99193051724512        4.05911089423067
H            5.86096723097481        1.93512743634861        3.71530453163875
H            5.64011210071043        0.19662735015988        3.18824735157595
H            1.48975304912438        2.28173447939320        2.88726743982228
H            0.42955821118982        4.34370309778027        3.67710467348710
H            1.56157199765794        5.76399791631227        5.34849216759997
H            3.75969942976415        5.09147863584101        6.24442870640268
H            4.81748633416479        3.01092822666728        5.48540762752431
H            2.76653787081315        0.41634822743119        5.99519938026927
H            1.10925981515943        0.85932956963209        5.55736400447731
H            1.46275705248746       -0.78379105209804        6.13027138867547
