18
 energy: -29.710489875811 gnorm: 0.000476261051 xtb: 6.7.1 (edcfbbe)
O            0.80673737059316       -1.77018922713628        0.83823874817552
C            0.36377335997573       -0.54975141005690        1.01017393411495
O            0.87998689533082        0.32896938583636        1.63401749355431
C           -0.98216182144297       -0.35033782682649        0.26453956824523
N           -1.62792077080142        0.83480190492829        0.77165416488083
C           -2.73710983649862        0.74361649175797        1.51742330152739
C           -3.29459530500136        1.86069911375180        2.10066215229616
C           -2.68133317965179        3.09654683905715        1.92729306594561
C           -1.53102861994265        3.16834754321896        1.15387205545143
C           -1.02489797606140        2.01684985256884        0.58543553325571
H            1.66240424165694       -1.92962650575766        1.27435234432181
H           -0.75266759947266       -0.24646180263047       -0.80055110806917
H           -1.60246651378255       -1.23735148862171        0.40172066957665
H           -3.17634333599607       -0.23543560177754        1.64127034702819
H           -4.19166692304813        1.76188537682732        2.69085921247476
H           -3.09260930850144        3.98199206984227        2.38589059770920
H           -1.02465640999506        4.10662470978205        0.99307867129356
H           -0.13424426736036        2.03424057523610       -0.02358075178212
