32
 energy: -38.697386596605 gnorm: 0.000762514867 xtb: 6.7.1 (edcfbbe)
C            1.33803739852283       -0.10603518348089       -0.11720964403836
C            0.82149890916992       -0.30498965962412        1.30277113384559
C            1.03487043818781        0.91625700632611        2.20088062878552
C            0.31201637244750        2.18415610769646        1.74328276177450
C           -1.21757535098983        2.07315888982550        1.75977734344088
N           -1.71716748210410        1.92076829646018        3.10712444996952
C           -1.91939858042883        0.74417744900976        3.75937702409588
C           -2.32327993940676        1.04565080082237        5.02598640696528
N           -2.36076432837414        2.40108959700296        5.12615680450678
C           -1.98407468987451        2.90956383427058        3.95497955864508
C           -2.71142785666184        3.17410963069065        6.30180590526535
C           -1.54353898694373        4.00197539786214        6.76673332905829
C           -1.60234074260334        5.30581476207949        6.95666041275126
H            0.75746239586952        0.63926983319963       -0.65524875506442
H            1.27388866441904       -1.03959797354392       -0.66944311717010
H            2.37835168227314        0.20847467884395       -0.10327347172262
H           -0.23525609170289       -0.58030488078119        1.26628126271124
H            1.35408343097657       -1.14373839350122        1.75410972881852
H            0.73567990625159        0.66878412687900        3.22348692326315
H            2.10285408535738        1.13762698254214        2.22548682991148
H            0.61279216333902        3.01745945906504        2.38230521348804
H            0.61454143858953        2.42555096516883        0.72543376885718
H           -1.65661592317051        2.97551174714786        1.32972221978927
H           -1.53886632280698        1.21140015953331        1.17400792338083
H           -1.77525965144444       -0.20896399921295        3.29336281762121
H           -2.58148534138434        0.39691461550286        5.83797520370635
H           -1.91488846549389        3.95681081057810        3.73343423164127
H           -3.56171574976859        3.82066243436033        6.06776893225849
H           -3.00969911719944        2.47226701183139        7.08492710973166
H           -0.63609137819551        3.44760703454549        6.96015518191478
H           -0.75365948596804        5.86106305591834        7.31412709140004
H           -2.50389140087970        5.86999540298174        6.78299479040080
