46
 energy: -107.253702713112 gnorm: 0.000574905175 xtb: 6.7.1 (edcfbbe)
C            1.12957928759718        0.17169620002367        0.60797511301555
C            0.87896968759207        1.56528301220418        0.04376910293213
C            0.71344375683134        1.58268212089981       -1.47635874635008
C           -0.54635639986320        0.86167966087422       -1.97565697451006
N           -1.73996063580313        1.51796032493095       -1.49441213673836
C           -2.29120093761424        2.60625269176975       -2.01547058794855
N           -3.31185803055309        2.99698418101057       -1.25120860767270
C           -4.16254396345960        4.14833638729588       -1.46381073229281
C           -4.09703267856323        5.17096934757354       -0.32266528260378
C           -2.92086854440254        6.15069124016160       -0.39801876182317
F           -2.90795810044694        6.77349822595025       -1.59722739907084
F           -3.08597186847690        7.10369629294674        0.53340990250487
C           -1.51119047880704        5.48678529307057       -0.23095669374833
F           -1.59881815438000        4.39859250386802        0.56665061324895
F           -1.14623709438198        5.01530891231483       -1.44303271290637
C           -0.40232061522649        6.43413069057818        0.32163978733172
F           -0.31720186418313        7.51303524790763       -0.46264740050662
F           -0.74329245366715        6.83151750349383        1.55451924631548
C            0.98568329362406        5.71590324508858        0.41864365313304
F            0.93439726235171        4.84251429945024        1.43833429898131
F            1.21840622845882        4.98881788050075       -0.68950318157903
C            2.16930409290605        6.71395447253272        0.60993479464911
F            2.44700124560063        7.27044980504387       -0.57807045452113
F            1.82866194151002        7.69333724555605        1.45513540698332
C            3.44657720221049        5.98879981546855        1.15156863932598
F            3.31269583485225        5.72303674609608        2.44242956433221
F            3.62955133532504        4.83444387916088        0.51031417106179
F            4.51500396619167        6.73993990441389        0.97464057784694
C           -3.41881752626992        2.11594649114985       -0.21429936633083
C           -2.42844512537180        1.19523094258363       -0.36574093979865
H            0.28078671753326       -0.49212568327182        0.46025910445926
H            1.31945466157874        0.23471327752198        1.67537838910831
H            1.99993515700361       -0.27655322431181        0.13639421245560
H            0.00607457725506        2.01194769586530        0.52768237287343
H            1.73573249342806        2.19425824155178        0.28721868756218
H            0.69571295044669        2.61590262215573       -1.82787400462559
H            1.57264413874062        1.09120791600400       -1.93247398854340
H           -0.56149784332879        0.86411329934333       -3.06706094325269
H           -0.55593372043513       -0.16999083300870       -1.62341633471991
H           -1.96273727487959        3.09792317967181       -2.91101366127207
H           -3.88380554174614        4.62207568882855       -2.40836404714061
H           -5.19601169517779        3.79838399607110       -1.54392874762878
H           -4.98927341184001        5.80086570087191       -0.37070992518114
H           -4.07761036722492        4.68777496586684        0.65553194310395
H           -4.17441187525723        2.19316428194660        0.53998571806544
H           -2.18142962966692        0.34866431099113        0.24183633148950
