23
 energy: -29.264546837433 gnorm: 0.000751472775 xtb: 6.7.1 (edcfbbe)
C            0.85784614267243        0.14298121514445        0.01744505545302
N            0.43137148646665        0.11790913165734       -1.35667670997787
C            0.18396442820177       -1.00065923336376       -2.10052255728023
C           -0.19951335558331       -0.58914760030211       -3.33722243159226
N           -0.18182794064128        0.77534333266546       -3.33001812421438
C            0.20785521593467        1.19185727509267       -2.12427696992339
C            0.34028172173178        2.61327750556134       -1.73034714261268
C            0.29442199220763        3.51021306567669       -2.97174502630554
C           -0.82115933802957        3.04982375441013       -3.90611172345556
C           -0.51311781442898        1.65168359970402       -4.43341511676375
H            0.89201846895333       -0.87393891246913        0.40212951300266
H            0.16252518382533        0.72799419882913        0.62089833103193
H            1.85212431846902        0.58549647912175        0.10088649941165
H            0.29403268553589       -1.98977182323814       -1.70680039243940
H           -0.47814982628405       -1.15696758967749       -4.20049799484827
H            1.27050982304260        2.76378234301510       -1.17784616965471
H           -0.48089756007924        2.87005743274299       -1.05255287611513
H            1.25083193515358        3.46683164959400       -3.49491038762418
H            0.12877341005973        4.54168843497221       -2.66656591280394
H           -1.77242476670118        3.04378612166330       -3.37117006602377
H           -0.91459026525837        3.73205009726963       -4.74925867791100
H           -1.36895172034051        1.23338792995383       -4.96756958848350
H            0.33775577509201        1.68311159197658       -5.12222153086965
