55
 energy: -61.387433163862 gnorm: 0.000399511770 xtb: 6.7.1 (edcfbbe)
C           -2.20924935536845       -5.52128763662321        3.18478469339376
C           -1.62585989868165       -4.16248400105108        2.81371870774575
C           -0.68043113315553       -4.22965232282836        1.60819745481184
C           -1.35521757263654       -4.56181004959098        0.27346296496013
N           -1.71287933986890       -3.40408836592468       -0.60704178725063
C           -0.43921377479877       -2.80494601955486       -1.18518077719884
O            0.25324763653457       -3.77018447703814       -1.86000862208974
C            0.52493426081505       -3.55247286579396       -3.26790271490808
C            1.60032623622785       -2.48492426828022       -3.46477206703708
C            3.01320262207528       -2.93208665312317       -3.08056010225226
C            3.19642348594043       -3.07088567329270       -1.57073807492021
C            3.34541128224716       -4.22041735348385       -3.83243590969787
C            2.32387427225108       -5.32529760300686       -3.57749923888738
C            0.86053433535806       -4.94106103227079       -3.84144076929306
C            0.36471979080597       -5.13025335006114       -5.29551581145958
C            1.25827296192839       -4.54253932431041       -6.38285324395963
C            0.14378515306122       -6.61695362847785       -5.58163879666756
C           -2.53655091404768       -3.91526151157339       -1.71898916116520
C           -2.46351102672123       -2.36527006077706        0.11122235938382
H           -2.85448362127307       -5.91771130019006        2.40389007473935
H           -2.80310674030264       -5.43278763112605        4.08984292376289
H           -1.41566900374282       -6.24026749399088        3.36977907231348
H           -2.43789047703628       -3.45471798352664        2.64355132002978
H           -1.04954423571443       -3.79339405415135        3.66321164484213
H           -0.10978100362770       -3.30351046640820        1.53835779623804
H            0.04452246893695       -5.02065914894581        1.80762517357651
H           -0.68819521777064       -5.18316933978063       -0.32669977827005
H           -2.27074695735629       -5.12131788660067        0.46806075399193
H           -0.73386476750188       -1.96381714964926       -1.82559237127805
H            0.14559801306309       -2.42616002911461       -0.33775230885514
H           -0.40608413811651       -3.19001986540032       -3.73299628412748
H            1.32892843099778       -1.59252765408120       -2.89297480099628
H            1.59424865709077       -2.20676273807758       -4.51902098349279
H            3.70306624147827       -2.15227023224189       -3.42195582230588
H            2.98610932066501       -2.12376268888877       -1.07659516089267
H            2.54156113001345       -3.83230994275313       -1.15882401365604
H            4.22476248241178       -3.34400464575801       -1.34879118229098
H            3.40364014594756       -3.99553329329700       -4.89603430789499
H            4.32742299677135       -4.57912959904107       -3.51986344359323
H            2.40535084456366       -5.63290605232675       -2.53371332667170
H            2.57659143516232       -6.19287243031751       -4.18655031688321
H            0.25220727921996       -5.63774659522896       -3.24856912238647
H           -0.61374085697076       -4.63580694048766       -5.36491114638571
H            2.21022871055131       -5.06279109265996       -6.42508012039094
H            0.77199804531146       -4.66352625499972       -7.34824913006880
H            1.43595807466041       -3.48219546888396       -6.23167201368689
H           -0.54675289182146       -7.05910716741820       -4.86645174659339
H           -0.27162609220593       -6.74571147555870       -6.57736210980239
H            1.08072447450238       -7.16507583003196       -5.53645799523892
H           -3.45189212846880       -4.36100787073996       -1.33510950194546
H           -2.79990056970641       -3.10167426356852       -2.39323345527617
H           -1.97768138573672       -4.66864566237159       -2.27170350017654
H           -3.36500317379279       -2.79740748133976        0.54194754654346
H           -1.85952013389247       -1.93485217656493        0.90618391953245
H           -2.75203437827605       -1.57059389740349       -0.57550538591548
