34
 energy: -42.465795707445 gnorm: 0.000263834328 xtb: 6.7.1 (edcfbbe)
C            0.30478297144142       -0.81503545732815        1.60908818296254
O            0.19174920827334       -0.69866377063864        0.20542755678991
C            0.88818582964550       -1.69618024616914       -0.49853583125209
C            0.50381911919600       -1.63694546142162       -1.97673371061612
N            1.06630943920107       -0.50368994072867       -2.76508694762910
C            2.55545188930149       -0.62727004991204       -2.92914796548697
C            3.00216267064940       -1.86064339464210       -3.67136444534554
C            3.27037030489219       -3.04442620016882       -2.99019255075468
C            3.70019942623274       -4.16675767878104       -3.67678261803488
C            3.87447810617997       -4.11791926616567       -5.04970688224363
C            3.62837010966892       -2.93911219831572       -5.73355255423345
C            3.19615076500651       -1.81696485285377       -5.04906538166786
C            0.42291432545264       -0.51770081230219       -4.09236027107307
C            0.76802872978502        0.78591029419668       -2.11632256939531
H           -0.09569000357052       -1.77111229181485        1.95822677109312
H           -0.27811388342427        0.00019444863911        2.02870953495734
H            1.34770804532354       -0.72454829306897        1.92990732075611
H            1.97266524516206       -1.59241799097040       -0.34087744058445
H            0.59837007836179       -2.69170598208732       -0.12866097041086
H            0.81252488249642       -2.56303438989520       -2.46481136399373
H           -0.58476593893317       -1.55810886962176       -2.01555238817679
H            2.89208425777938        0.26134450004116       -3.46746526335865
H            3.00233661810617       -0.61066374485684       -1.93423805646094
H            3.16580619675366       -3.08910510059757       -1.91585523293432
H            3.90862090624084       -5.07637294887842       -3.13596002827572
H            4.21514615140410       -4.99123351081176       -5.58260561945323
H            3.78075346772474       -2.88879604862972       -6.80005560900333
H            3.02988621915658       -0.89727883623673       -5.59072923588420
H           -0.64908492933091       -0.36075732295048       -3.98950020641154
H            0.83185555778541        0.27826551934966       -4.71183734809001
H            0.59698148100869       -1.47158020005518       -4.58693292713944
H           -0.29922261908511        0.86357597002105       -1.92031245490992
H            1.28506189569502        0.86545622034868       -1.16399306375136
H            1.07595347641316        1.60694790730226       -2.76095042998578
