43
 energy: -64.762039040727 gnorm: 0.000650631027 xtb: 6.7.1 (edcfbbe)
C           -0.95707658421002       -1.13829268316767       -1.60476771882930
O            0.12224479440552       -2.03882373811582       -1.44514661556707
C            1.35401761157773       -1.74952029488570       -1.87066970929921
C            1.64192616048362       -0.39667400677433       -2.41321686213669
C            2.69218759534457       -0.26021756558502       -3.22970227990641
C            3.24363629283002        0.96062092926005       -3.78100767842319
C            2.84375801453473        2.23865940898354       -3.37569607522619
C            3.47592220156392        3.36164907656666       -3.85762382628802
C            4.53067788045536        3.25613488551448       -4.77147755106610
O            5.11127751663518        4.43410344803793       -5.12646014521596
C            6.40326438411168        4.47167778589823       -5.69699735169952
C            7.35328850400512        5.24609497631786       -4.77093875966226
C            7.26385906679210        4.77821573428406       -3.31432243781060
N            7.43755618859754        3.34819341548847       -3.16691917797168
C            6.58243594897248        2.51388802393519       -2.57989074348894
N            7.06965541945626        1.27704871985020       -2.61818524011089
C            8.26912965380864        1.32003726469015       -3.25971244998702
C            8.50190505091680        2.61787869402581       -3.60183042082106
C            6.43244755739297        0.09722075272945       -2.09705784504082
C            4.89757928869015        1.99272273969958       -5.22826179441043
C            4.26081264878204        0.87096098222279       -4.73337020813486
O            2.22326604413320       -2.58314509586301       -1.78779864661951
H           -1.84994271468584       -1.70782577478834       -1.35269661693285
H           -1.03442452556191       -0.78092661825539       -2.63426816027330
H           -0.87155882274433       -0.29081212049525       -0.91928593357702
H            1.03263906461405        0.43491433542836       -2.09776149638870
H            3.20807098307704       -1.17354729517250       -3.50494450360474
H            2.04156920401976        2.35253102666064       -2.66460924513883
H            3.16949276183669        4.34806104528203       -3.54655650670848
H            6.79709045408984        3.46782911918146       -5.87387874199170
H            6.33534503038434        4.98826313342162       -6.65896456060742
H            8.36847865746211        5.15111472866359       -5.15502974169467
H            7.08452499602107        6.30193384718642       -4.78138315839801
H            8.02981407282695        5.28919263282880       -2.72431618201381
H            6.28176010362779        5.03464266159096       -2.91323788146606
H            5.64336793542871        2.79291913567005       -2.14206785440350
H            8.86870652309742        0.44770609960542       -3.42326247300405
H            9.34025807592345        3.05694369116351       -4.10246488145995
H            5.92170351256459        0.32499186099394       -1.16332167649417
H            5.69497548955278       -0.27986206964080       -2.80775020454476
H            7.17873573762932       -0.67384934953756       -1.91867461685844
H            5.65259660229744        1.86349415500905       -5.98872949882665
H            4.54761561916169       -0.10075769799520       -5.10952252791391
