32
 energy: -43.564557417532 gnorm: 0.000993939723 xtb: 6.7.1 (edcfbbe)
C            0.71696784572515       -0.11448936843826        0.17235854353962
C            0.43375733585566       -1.12462700365080       -0.87469706777518
N            0.61369910443733       -2.41285779408380       -0.67553165136292
N            0.25528051037999       -3.02983961630422       -1.82040500966652
C            0.38741954841119       -4.44204502178812       -1.90212682874170
N            1.80010605989150       -4.80340145930409       -2.02546563057383
C            2.71344217875673       -4.44082146780748       -1.07294829623397
C            3.92818612103654       -4.86547126245205       -1.50039396388442
N            3.74191427173130       -5.48304993052491       -2.70483325927292
C            4.77083582786946       -6.08829794594951       -3.50733903120482
C            2.44076376381329       -5.43415909173604       -3.01772638375450
C            1.87452312325724       -6.00913802281435       -4.25389879960859
C           -0.14243189589029       -2.13173057429994       -2.77196268824501
C           -0.58744495800344       -2.53730734500809       -4.12842786342933
C           -0.04457635153798       -0.89669337754135       -2.18616006405476
H            1.03164073202816       -0.60662105490764        1.08820282638678
H           -0.17477366342606        0.47737599993401        0.37119152243031
H            1.50201058456858        0.56325561969167       -0.16089229316374
H            0.01619419190237       -4.88858220140800       -0.97109412758673
H           -0.17278588588908       -4.82977360386093       -2.75392048930004
H            2.40996390959249       -3.88625245297514       -0.20619060118747
H            4.89128110531977       -4.77716601598387       -1.04211220877435
H            4.80877215999360       -5.62544162953663       -4.49383490923507
H            5.73212990701967       -5.95417215712664       -3.01798158194453
H            4.58294743761034       -7.15560593921295       -3.62952678979150
H            2.29946239238715       -5.51736885901154       -5.13001272534450
H            2.12035695188812       -7.06901935709031       -4.32387079678520
H            0.79499535817187       -5.90676777492551       -4.29097123274376
H            0.22123573925574       -3.01158075941597       -4.68669943386376
H           -1.42963040785138       -3.22770973279475       -4.07546016155585
H           -0.90697893352622       -1.65574389620937       -4.67604573430223
H           -0.28553406478239        0.04896309653717       -2.62441326896479
