34
 energy: -40.529646635730 gnorm: 0.000223290997 xtb: 6.7.1 (edcfbbe)
C            1.90395247498021        0.17442255988456       -0.66008512472375
C            0.80634060166423        1.07255045833716       -1.13693592128385
C            0.22698291710456        0.78508594777046       -2.30000853622927
N           -0.85897476396408        1.48125968188512       -3.00641642149713
C           -2.15377663855121        1.21691023100286       -2.28301826223375
C           -3.36927253993279        1.78104235750421       -2.96911226863767
C           -3.78664493087806        3.08373446421787       -2.71445380044852
C           -4.91067490053183        3.59359895548554       -3.34048278235395
C           -5.63327915857290        2.80638065966761       -4.22136799598364
C           -5.23603662054784        1.50236697735405       -4.46589894221520
C           -4.11109828822167        0.99172882692545       -3.84295035878131
C           -0.94112435954113        0.92949093380956       -4.37316456829335
C           -0.59003886431780        2.92680928764310       -3.12445193536231
C            0.53166111948919        2.21752541398586       -0.21406512008575
H            2.17559865768974       -0.57640893640150       -1.39550120208934
H            1.59287954007795       -0.33104771194263        0.25292344549897
H            2.78434245499723        0.76659588568021       -0.41857374906182
H            0.55442020853152       -0.09442842489552       -2.83120951219466
H           -2.24630623276951        0.13228537059340       -2.19071192065871
H           -2.06359705451807        1.63714790890341       -1.28095335255213
H           -3.24690934848195        3.69967126948178       -2.00971618884888
H           -5.22632145843217        4.60378490547162       -3.13231923718329
H           -6.51112153860366        3.20353309197167       -4.70560747302986
H           -5.80487896535387        0.87857746919481       -5.13719259560336
H           -3.82103057172478       -0.03291293787222       -4.02497672467017
H           -1.74253974542047        1.41989601107070       -4.92290420494573
H            0.00087329677512        1.09418324788219       -4.89364572065147
H           -1.14484906817167       -0.13916723782498       -4.33733479663951
H           -0.61400826069436        3.40723249636033       -2.15209436067085
H            0.39530827764752        3.07399418332908       -3.56359006701162
H           -1.34000722408760        3.38936095206923       -3.76385499531740
H           -0.50615266422656        2.53738813880137       -0.19954325904874
H            0.80602513676850        1.93691100300345        0.79985736140710
H            1.15608851181920        3.06811655965251       -0.48859940859869
