12
 energy: -14.900770213225 gnorm: 0.000263015884 xtb: 6.7.1 (edcfbbe)
O            1.50679512216226        0.12288278634282       -0.16342895524917
C            0.68129274353162        0.60768890776701       -1.20577602012694
C            1.02135125060021        2.09620223589467       -1.32588543440958
N            2.50541297648297        2.18888280815761       -1.25354620340797
H            1.20792663815793       -0.74251716961976        0.13236319323220
H            0.90086736860990        0.08045648111398       -2.14344916180680
H           -0.38031588700296        0.48835458103377       -0.97725124389956
H            0.63803133418146        2.52703244581537       -2.24897858381662
H            0.60533368838695        2.63254713737820       -0.47201975144777
H            2.94620018812079        1.92012101270571       -2.14084076317996
H            2.83885976470877        3.11608848139827       -0.97363657905368
H            2.74829481206009        1.47265029201233       -0.53347049683412
