45
 energy: -58.732245120997 gnorm: 0.000628929834 xtb: 6.7.1 (edcfbbe)
C            2.73282263055416        2.60220508553371        0.08162654072261
O            2.03990826249685        1.50032593946822        0.63382753302019
C            1.68364310629211        1.68371094133953        1.98341675678428
C            0.66251543848194        0.63237845617344        2.43756189978196
N            1.00302214882166       -0.79730850192670        2.16164987812171
C            2.46550920604115       -1.05623504362332        2.34934410741759
C            3.04821277655521       -0.78112846314773        3.73821527588156
O            2.76375869547867       -1.86515029100222        4.59201939819447
C            3.48159627161326       -1.83251588277168        5.80941300727297
C            0.26573058512163       -1.70962060807393        3.08981968253092
C           -1.23288667562390       -1.47376695622952        3.32946837141038
O           -1.92854139112205       -2.57452592163550        2.78562889705048
C           -3.30100359954237       -2.59110106878062        3.11103073656004
C            0.71973031409220       -1.10443078401749        0.72050141025922
C           -0.74262283569129       -1.21601905289028        0.29502904771003
O           -1.42081506712154        0.01152799785614        0.47332128349013
C           -2.67430097996067        0.05031427395919       -0.17570164124233
H            2.95483323099069        2.33759033688099       -0.94910597686293
H            3.66554446087193        2.79091788512518        0.62261664173846
H            2.11487226555242        3.50421526150519        0.10442120933108
H            2.58921506310249        1.68279335143103        2.60842683795762
H            1.19706097770144        2.66177914124255        2.11578410560863
H            0.51012788325375        0.75394495588315        3.51049157747648
H           -0.26981868373452        0.83515421204657        1.90966945337633
H            2.64509506445832       -2.11436720028220        2.14708764773526
H            2.99499803605015       -0.46068826037770        1.60548028522207
H            4.13798304097570       -0.68124937710858        3.62091994820407
H            2.67400873114436        0.15333289498434        4.18048984427059
H            4.56022707428432       -1.84703292400612        5.62845836440086
H            3.22682080168276       -0.94271097012037        6.39410793540052
H            3.19087919923675       -2.72577428437306        6.35555490835324
H            0.35627903801831       -2.72471503257454        2.69549077357764
H            0.79064081283688       -1.68582043725226        4.04401572389583
H           -1.42741775538162       -1.42163365358181        4.41040676195132
H           -1.59771946233045       -0.54210630597971        2.87941188051584
H           -3.44715945455457       -2.65453662671893        4.19375292238374
H           -3.80832814702973       -1.69570449349667        2.73476622418174
H           -3.71662111857456       -3.47612056953849        2.63595036776123
H            1.18824000600313       -0.30831992325694        0.13957201483249
H            1.19143420775649       -2.05882535478888        0.48240629314515
H           -0.72826055437746       -1.47614138857107       -0.77397567180503
H           -1.26205824285657       -2.02234086001848        0.82806954924457
H           -2.55781119365922       -0.05969471812132       -1.25790058384065
H           -3.33361432609580       -0.74148999036830        0.19450433977340
H           -3.10625984181025        1.02322421119401        0.04652443721924
