37
 energy: -45.636208887312 gnorm: 0.000836824068 xtb: 6.7.1 (edcfbbe)
O            0.63014924749103       -1.00868279060964       -0.22495940701460
C            0.06069229410014       -0.17364214079455       -1.21609583011325
C            1.14428512053757        0.75468647649976       -1.80701516641730
C            2.57644220045958        0.24861071359667       -1.62698753387789
N            3.09785762925165       -0.76238893439345       -2.59670234852190
C            3.56581372202994       -0.14144345722339       -3.88557934026038
C            2.53457013573196        0.60371681621709       -4.69605060286672
C            1.72271485328168       -0.13373037830486       -5.55897375717005
C            0.76257114187647        0.47582937400818       -6.34238177170425
C            0.61681099439600        1.85147379245255       -6.28907337067626
C            1.45202336762275        2.59545549803818       -5.47850543484486
C            2.42431773569407        1.99980211525396       -4.67902668958390
C            3.29974467407472        2.89839878075224       -3.85577871345831
C            4.27602863696657       -1.39515175629437       -1.96780246766035
C            2.09884538634512       -1.81105377398789       -2.85096803304392
H           -0.06370516863507       -1.32769536698437        0.35979229998552
H           -0.39599461421386       -0.79262636080795       -2.00100786536589
H           -0.73125709869821        0.44927525050204       -0.78960523628696
H            0.90966947235116        0.96969878068829       -2.84695745481338
H            1.10488732786497        1.69838988199272       -1.26152518329542
H            3.26301761007585        1.09446224983738       -1.65455976247082
H            2.61859156922491       -0.20223591836036       -0.63295397459259
H            3.95557345973109       -0.95968189276105       -4.49681788050099
H            4.39598238798738        0.52034251993263       -3.63647882935112
H            1.86099616328375       -1.20218849468173       -5.64036248830948
H            0.14553177084835       -0.11682717545368       -6.99851669409208
H           -0.12615226528656        2.34428034327848       -6.89552701275585
H            1.35894412936253        3.67058291837271       -5.46834434480745
H            3.31210251511135        3.89197891454264       -4.29524955886069
H            2.91505047623680        3.00030708158674       -2.84133111004974
H            4.32871421062100        2.54896128011184       -3.80679972421893
H            3.97248984052866       -1.93705241942679       -1.07395229878612
H            4.74241670579588       -2.09648763042050       -2.65766062249523
H            5.00972144341080       -0.64109745438474       -1.68829837258191
H            1.71944011184230       -2.18140386371611       -1.90024607477117
H            1.27567425007417       -1.40766973209458       -3.43394040684926
H            2.55407856261527       -2.63266324696612       -3.40112693752712
