31
 energy: -38.994919549043 gnorm: 0.000327071043 xtb: 6.7.1 (edcfbbe)
C            0.85988812807481        0.40584095152408        0.20368712269821
C            0.52125246735605       -1.04892534618361        0.50778702150760
C            1.05610494497537       -1.52669052083505        1.85917161321147
C            0.52920949082727       -0.71568196192864        3.04907187287177
N           -0.90969579575179       -0.69103987935914        3.06528156744868
N           -1.55711253958685        0.40092785720020        2.80218189836651
N           -2.82421998867828        0.10634410249710        2.84048474621923
C           -3.85069607218518        1.09209489412852        2.61599845733677
C           -5.15709458062896        0.38763559279594        2.26525239081653
C           -5.44651046929564       -0.70452068502943        3.29279949941425
C           -4.37824266116839       -1.79760626497937        3.21085934608629
C           -3.02543653178882       -1.19795506122626        3.13160016977300
C           -1.75460380290570       -1.71873169474662        3.27665682204527
H            0.33834587323697        1.08901513779181        0.87014595991948
H            0.56900657121561        0.64624746051983       -0.81499338183885
H            1.92956119700502        0.57357377808606        0.29651982218030
H           -0.56198342624850       -1.19260837148085        0.45976253847513
H            0.96018517572466       -1.68332833169332       -0.26296541511399
H            0.80525038007219       -2.58042567989739        1.99462479358688
H            2.14266485955695       -1.44080975175765        1.86752425626821
H            0.88557729256455       -1.15243225081544        3.98489290234302
H            0.86093890506686        0.32090707951846        2.98403300569857
H           -3.51370492734709        1.76192658413966        1.82230615068708
H           -3.96580504766749        1.68295029253623        3.53083981974502
H           -5.08846594969560       -0.05098323543807        1.26815957005977
H           -5.96035051450086        1.12216742519252        2.25374976731691
H           -5.46026100337493       -0.27176420518197        4.29446670671323
H           -6.42517891132307       -1.14346847418266        3.10807868872846
H           -4.43489540558333       -2.46865830997097        4.06931105594135
H           -4.53744029649755       -2.40876424832145        2.31699567690621
H           -1.42847736144977       -2.71039688290115        3.51047555458946
