77
 energy: -80.485932777041 gnorm: 0.000278056913 xtb: 6.7.1 (edcfbbe)
C            0.61991114803858       -0.26254071632193        0.53972839371802
C            0.65928854555247        1.17747114566667        0.03503015767201
C            1.00373354873215        1.26932683741509       -1.46373890119158
C            0.31888967537103        0.28762253835246       -2.42118892859176
C           -1.18862086042625        0.45949033499531       -2.62931627898476
C           -1.62963410233023        1.85075746973753       -3.09305156538527
C           -0.97909827131924        2.31838809858281       -4.39158237244094
N           -1.19902657998054        1.38802581638047       -5.52947467586306
C           -2.63319444153015        1.21231823969221       -5.91302074999473
C           -3.41120680531901        2.47322067392327       -6.28346585793161
C           -3.10730436619987        3.09922644172141       -7.64736849469966
C           -3.33026933912079        2.17757567529168       -8.84942837219288
C           -4.73461997317417        1.57735759532819       -8.95416856359845
C           -5.88345301690132        2.59190624068344       -9.00971666268822
C           -5.77373799123942        3.50610595880897      -10.22688985869621
C           -7.21461651008613        1.84254220500665       -9.04118336914317
C           -0.29111344124312        1.69732502079815       -6.66743047911457
C            1.07034089770946        1.02605774108352       -6.50539422156166
C            1.01437146799610       -0.50410678024645       -6.44881626891057
C            0.35534854246073       -1.17515955476758       -7.65723763713918
C            0.96767532141309       -0.80918464390520       -9.01145886542792
C            2.46690753304991       -1.09998009268799       -9.15539649071192
C            2.78055292180745       -2.58104695260258       -8.96030266068029
C            2.93350716178325       -0.64817959949107      -10.53831362173660
C           -0.62177817327944        1.91731045414317        0.41866787660528
H           -0.24645462759757       -0.79496115815214        0.15409928334069
H            0.55881625648293       -0.27089595782617        1.62469626252675
H            1.52057784999467       -0.79808262513541        0.24880563296549
H            1.47973186773426        1.68628080878810        0.55410185730253
H            0.83531712476994        2.29679325708195       -1.79459865726062
H            2.07611872832501        1.08018274927545       -1.55788906777412
H            0.83465839530968        0.36238685514055       -3.38393805271612
H            0.49002665266199       -0.72657800149346       -2.06011610769554
H           -1.53067101894078       -0.30476269606456       -3.33760632246921
H           -1.70018857854771        0.24807174206517       -1.69177567188156
H           -2.71691062708455        1.87101401243866       -3.18266687460061
H           -1.36565898134026        2.57640914413431       -2.32427831913302
H           -1.35636573521406        3.30254930626008       -4.67152455900496
H            0.09824361132118        2.39995948207441       -4.24205998117115
H           -0.89781671078724        0.46419987286918       -5.19035980628038
H           -2.66218615300074        0.50948831309218       -6.74732996166664
H           -3.13113467462162        0.73887394785239       -5.06466563755640
H           -4.46356771457847        2.18575998754153       -6.27502159212298
H           -3.29437307216874        3.23190468549552       -5.50919328174997
H           -3.76293316847367        3.96385368075294       -7.75300764979742
H           -2.08534512367023        3.48015102224787       -7.67845485070578
H           -3.12312028868753        2.75467021791238       -9.75077360611381
H           -2.61027790863630        1.35365320190028       -8.83894318293953
H           -4.77005121498428        0.97349297568833       -9.86352408190068
H           -4.90794449387939        0.89844768071264       -8.11502377413570
H           -5.86573267475054        3.20961317134080       -8.10501499428958
H           -5.73737088895447        2.91710810134162      -11.14042975583137
H           -6.63911243379724        4.16166318789289      -10.27986780669069
H           -4.88458857795428        4.13002038781605      -10.18094647354675
H           -7.31974566197766        1.19638465819266       -8.17192098172445
H           -8.04493478228387        2.54360448817558       -9.04621477679591
H           -7.28254874372065        1.22739279061752       -9.93531262925352
H           -0.75470612491669        1.34560583722081       -7.58814410579640
H           -0.16917876417668        2.77894782539329       -6.73611958774132
H            1.68243559270613        1.32641764897470       -7.35524444985303
H            1.57273167824226        1.39651584738617       -5.60892323755765
H            2.03902590646023       -0.86537888674018       -6.36364559820697
H            0.50001470028774       -0.84153371816046       -5.54075468471500
H            0.42715580442292       -2.25398833653663       -7.51748014546809
H           -0.71253965501661       -0.93761425650410       -7.68620097208357
H            0.43574172446710       -1.37501946041837       -9.77942756863652
H            0.79696112352143        0.25016083227363       -9.22069122902936
H            3.02125138214094       -0.52287128503401       -8.40696171462760
H            2.19244271822866       -3.18657325764444       -9.64595426365231
H            3.83241189701219       -2.76747062896735       -9.16024972849795
H            2.57221973625044       -2.90627164181031       -7.94400454514664
H            2.72880918431249        0.40918457227177      -10.69353942751831
H            4.00268064217772       -0.80726951887957      -10.64887754077489
H            2.42296680154338       -1.21360292066125      -11.31423597771872
H           -0.71032130969434        1.94942409174057        1.50168131579084
H           -0.59998308432106        2.94362221182209        0.05729303135844
H           -1.51046947641799        1.42661560653995        0.03204431919040
