40
 energy: -60.202822809896 gnorm: 0.000603089270 xtb: 6.7.1 (edcfbbe)
C            1.48058102078310       -0.85616889249620       -0.21225167390293
C            0.42945112178051       -0.58633425576001       -1.24047858267251
O           -0.53355818871111       -1.26913384185070       -1.45030567072346
N            0.57633332794495        0.56531168208630       -2.02419677949597
C            1.51781806327238        1.55004792057797       -2.05658580684054
C            2.70849646889161        1.74186533150923       -1.40441071623160
N            3.22570897696812        2.93629573210503       -1.83627899101652
C            2.39490271131699        3.47901398936836       -2.73005372600172
N            1.34671012880464        2.64233925577272       -2.88521408821616
C            0.27033926325482        2.79499531977484       -3.83214629269504
C            2.60589839416794        4.73832806238815       -3.43309520940558
C            1.59789815320859        5.70344091777134       -3.47856357126567
C            1.81713372275591        6.89866453378795       -4.13835980783207
C            3.03266310752467        7.13966122323525       -4.75818819884628
C            4.03721745154750        6.18522382976572       -4.71256205389161
C            3.83216362032482        4.98954188637573       -4.05133205874656
C            4.44292477456614        3.49203393813710       -1.35725627121037
C            4.48409979102574        4.81045705773059       -0.92290305337262
C            5.67786248425416        5.33027980514423       -0.45547806079099
C            6.81684335949717        4.54170244322367       -0.41896853905943
C            6.76589325849355        3.22537995684065       -0.84747790173808
C            5.57801413037185        2.69293944174520       -1.31706488323380
H            1.19666423828416       -1.74794350047922        0.34004806595627
H            1.56226533308099       -0.01926761227823        0.47715578099671
H            2.44047339020650       -1.03025587441431       -0.69255772975378
H           -0.20017696708657        0.67026096350583       -2.66868934241541
H            3.21617225164948        1.15869688194296       -0.66821965594954
H           -0.67723305869465        2.97020296352723       -3.31915116280003
H            0.48430202421520        3.64190052132467       -4.48090368249815
H            0.18728064344543        1.89995855328080       -4.45140066105451
H            0.66146597995941        5.53287146842247       -2.96871959491071
H            1.03714404597325        7.64323858764204       -4.16497220681677
H            3.19823280661971        8.07224583191080       -5.27393268806639
H            4.98379222031988        6.37182055620739       -5.19444168357025
H            4.61079258224396        4.24259356613231       -4.02595318101215
H            3.59121100742453        5.41589169619592       -0.94130767940004
H            5.71488033847169        6.35252079600524       -0.11427780250130
H            7.74440254282998        4.95258064154918       -0.05320483956181
H            7.65097390434911        2.60997070344108       -0.81951476307841
H            5.53453157466575        1.67236791885001       -1.66611523637525
