49
 energy: -82.329106019502 gnorm: 0.000184358805 xtb: 6.7.1 (edcfbbe)
O            2.39199702161693        2.76238254902513        0.02495936481721
C            2.75843776995477        1.61993784017076       -0.14071704205805
C            2.43245101738516        0.80209518008101       -1.30552894249048
C            2.93243940641456       -0.48976638283718       -1.50472351644673
C            2.58643453761134       -1.19542679839435       -2.63982928227648
C            1.74176919347711       -0.63282933058301       -3.58686066619531
C            1.23996898328113        0.64632614470791       -3.39940657791665
C            1.58247633249769        1.35993994700983       -2.26928019066315
C            3.65529941437844        0.97373853890958        0.94764631367078
N            3.77278446274475        1.88868288325716        2.04726820875349
C            4.39975854483577        3.06942689633415        1.98608971223305
C            5.28394364444144        3.54940547187226        0.91166636089412
N            4.11244870338605        3.79575230664356        3.07856017100899
C            3.27668051060631        3.05026082255531        3.90076204166049
C            3.04430053256098        1.84099767123309        3.22231167671014
C            2.22986763469863        0.85863988974075        3.76746640638004
C            1.67603660500019        1.11449667067293        5.00609159225356
C            1.94001010351650        2.29845630986513        5.69537497558572
C            2.74626004538083        3.28410881966982        5.16187129985751
N            4.73410081649476        4.98490983298058        3.30889191990090
C            4.15466763272261        6.00685709443250        3.79068018146825
C            2.75454933081228        6.24374558323993        4.12604185022863
C            1.70666218960672        5.66764472470194        3.39929613968193
C            0.39764745828773        5.91318016684505        3.76117501208358
C            0.13557336143906        6.72520377852569        4.85628394810257
C            1.16023689571034        7.33098451413471        5.57193467796140
C            2.46716591630899        7.10042996414282        5.19497680701016
N           -1.24495234956015        6.95070491411629        5.25871168977090
O           -2.09701488544364        6.34583103853918        4.65231547500258
O           -1.43306605326567        7.71522660296874        6.17315135741703
H            3.59416635368302       -0.94799179422180       -0.78637882670787
H            2.97638315226431       -2.19022636873313       -2.79034575491456
H            1.47707049293037       -1.19326081951223       -4.47007996255679
H            0.58387190004663        1.08428378937813       -4.13518245500173
H            1.20251203974930        2.35691088705129       -2.10534722625500
H            3.21004583875245        0.04490600299176        1.30280357090254
H            4.63984477147824        0.76347956737499        0.52226701432460
H            4.69527173393310        3.93189894374650        0.07637704781924
H            5.90236397593539        4.35779127541827        1.29683828470093
H            5.91679921351524        2.74704644955303        0.53814467394509
H            2.03430459352437       -0.06989848162638        3.25657000848067
H            1.03375145682701        0.37645307537259        5.45884097635861
H            1.50500368783003        2.44596463641796        6.67060821256407
H            2.96137932893309        4.18537508605050        5.71110139439263
H            4.83853701910472        6.82873719077281        3.97496029127971
H            1.90768408983034        5.06330535175895        2.52776693131070
H           -0.42665225825497        5.48496533069754        3.21177048579013
H            0.91692590924858        7.97474576350097        6.40361025338898
H            3.27554192365635        7.56273046945376        5.74077411564994
