24
 energy: -25.683942309844 gnorm: 0.000735163744 xtb: 6.7.1 (edcfbbe)
C            0.64592287671952       -0.04949985028921       -0.03193351545564
C            0.13064491421823       -1.14751529460841       -0.94931942405994
N            1.01973146941320       -2.34039416628858       -1.06121081692190
C            1.31545161534130       -2.88306771602040        0.27703821178421
C            2.29839334044296       -2.02249487967866       -1.78764579867920
C            2.34810193128616       -2.92719088976637       -3.02057808786011
C            1.46236598651262       -4.10358250653443       -2.62479959767262
C            0.34157085133823       -3.39659561785060       -1.87969164978892
H            0.61833899724667       -0.34165244846319        1.01336515949904
H           -0.00255404209993        0.81559716514728       -0.14399233239477
H            1.65543323720329        0.26137496245784       -0.28693053443843
H           -0.84021726811788       -1.49408442662313       -0.58758458791718
H           -0.00262223517060       -0.74913116658983       -1.95763681980942
H            1.94081433433074       -2.19282194090927        0.83819926216026
H            0.38932287790666       -3.04525697291303        0.82649581981264
H            1.83966230235606       -3.83174574370938        0.18109867825322
H            3.14063172254964       -2.22581886112509       -1.12684261290525
H            2.32176784740713       -0.96855894845791       -2.05972150353661
H            1.93115347240543       -2.42061098351707       -3.89120647036568
H            3.36580297186807       -3.22609417405314       -3.25819547109627
H            1.09023220392552       -4.65620332040164       -3.48315190744411
H            1.99789155713682       -4.79906585137153       -1.97872383054875
H           -0.32276765121992       -2.91138253923292       -2.59662323245097
H           -0.24794331299985       -4.05109382920138       -1.24013893816339
