114
 energy: -123.853944081071 gnorm: 0.000303447021 xtb: 6.7.1 (edcfbbe)
C            1.16798871113981       -0.49391850028137       -0.65727345853338
C            1.41618030802231       -0.83236614346436        0.80778329404966
C            1.49225400304590        0.40221578511790        1.70696847751615
C            0.20965456093032        1.23410164360067        1.77008574801605
C           -1.02360602380095        0.48314240706720        2.27529956668852
C           -0.88419195389672       -0.12066968713500        3.67412569670149
C           -0.56465076239532        0.88500753533760        4.78186191014476
C           -1.58325676317093        2.01521955409987        4.94005828122765
C           -3.01131848130840        1.55753811356999        5.24142427056196
C           -3.17146376866165        0.75372262024710        6.53336034703238
C           -2.73574734130066        1.48377318264637        7.80578199687997
C           -3.43232316356273        2.82390283027159        8.04963745676448
C           -4.95772959872703        2.74916193792469        8.12930177802018
C           -5.50170645448560        1.88524071763716        9.26888797880304
C           -5.09035252914074        2.33487583586546       10.67420675726508
C           -5.41825549648679        3.78968753011633       11.01087030498073
C           -6.92738370034282        4.11180970337913       10.98084602014043
C           -7.58855492107888        3.42316475647009       12.12133716083605
C           -7.41215973464156        3.84816423129186       13.44561622901058
C           -8.01328656397127        3.17507953133528       14.47797824735314
N           -8.78247589520323        2.09576892056548       14.25840212142385
C           -8.97113926006923        1.65874691850043       13.00588314314254
C           -8.39638918234471        2.29597903337850       11.93276256753848
C           -9.37560320026496        1.40600360358822       15.38178190650273
C           -7.17400646555670        5.63287656428993       11.02726826290541
C           -6.89923806535747        6.33532528870366        9.69504250055837
C           -7.76461481716491        5.88179805052501        8.51749950777242
C           -9.27260280387557        6.03652555360257        8.72018112654083
C           -9.74339947816786        7.47210043959768        8.96366906932953
C           -9.36117522368644        8.46906386830581        7.86713006786580
C           -9.81597404300742        8.08619327851857        6.45766748318424
C          -11.32746966021018        7.92633687893769        6.28756940062433
C          -12.14341356841717        9.19340610397144        6.55057412131865
C          -11.77613493696029       10.39178496580529        5.67250299891505
C          -11.84455502832547       10.13498351714373        4.16577933316551
C          -13.21015850508157        9.67944935954303        3.64871943672460
C          -14.35174140430512       10.67087081836607        3.87969415521668
C          -14.15418531141943       12.04576895437286        3.23769680877657
C          -13.95066332395865       12.02796550442319        1.72190064466947
C          -15.13462077365402       11.44188111308293        0.96211035522294
H            0.18196555664299       -0.05830013615115       -0.79772898635513
H            1.23017263387908       -1.39200719650163       -1.26773200038035
H            1.91193433534053        0.21484221864209       -1.01488563662974
H            0.63317593041948       -1.50391380840935        1.16414777618039
H            2.36454934951062       -1.36936555183366        0.88904779364838
H            1.76609656025436        0.08425916870313        2.71520723362043
H            2.29565789290049        1.04778496154842        1.34243887911716
H            0.39444728347293        2.09727853156253        2.41335229336191
H           -0.01237685205358        1.62267071803829        0.77419818647283
H           -1.87137501971370        1.17200390152377        2.26260082941970
H           -1.26150894321907       -0.32380876136948        1.57939925621195
H           -1.81360996653207       -0.64146070413780        3.91624889113982
H           -0.09371966101501       -0.87365650791436        3.66106814489709
H           -0.48008623009271        0.33983720367136        5.72483107064161
H            0.41128277325116        1.33363783652068        4.58670841150814
H           -1.23896973912732        2.67737327668967        5.73779156525966
H           -1.60388113411704        2.60778373409285        4.02344061386724
H           -3.65277957727719        2.44098341528758        5.28226824570411
H           -3.37156293997482        0.94360244020890        4.41394142461028
H           -4.21945652021069        0.45776995701703        6.62537443991195
H           -2.58980294017698       -0.16649428903858        6.45622079010483
H           -2.90899775401567        0.82186158253958        8.65800207205763
H           -1.66081146398049        1.66672644629299        7.76136009884256
H           -3.03707628054373        3.25412947061187        8.97290908913386
H           -3.17135441414673        3.51094251910781        7.24315416619986
H           -5.34876177350083        3.76485886418221        8.22008586747441
H           -5.34231403218714        2.34748059810201        7.19076823200376
H           -6.59219359225582        1.86162969633884        9.19128443804939
H           -5.15740791670994        0.85925559589667        9.13286717242459
H           -5.56454052164877        1.67186724408149       11.40505903923366
H           -4.01223451156830        2.20666707520268       10.77887030857084
H           -5.02138372257882        4.02336869389137       12.00154382770075
H           -4.91886500135494        4.44096424700194       10.29657436555246
H           -7.34439923991834        3.72460830787631       10.05099523548831
H           -6.80393576817996        4.71032070282860       13.66509064194262
H           -7.89005076538141        3.48597191490564       15.50472021978574
H           -9.59289608948434        0.78571050271618       12.87496055876267
H           -8.57546755934764        1.91528901976302       10.93962931462862
H          -10.16034521129292        0.73342327762248       15.04306629909271
H           -8.61712445093867        0.82166058679369       15.90659893227451
H           -9.80274471348839        2.12337658950128       16.08172473720881
H           -8.21117851952215        5.81492749433601       11.31453855610227
H           -6.53363343337836        6.08423611525091       11.78734508170757
H           -7.05204318286072        7.40366893158099        9.85305614061246
H           -5.85055694782187        6.20258540445595        9.42174534739810
H           -7.46418932918370        6.46320792991578        7.64543217251398
H           -7.55377419564741        4.83629175974349        8.27924917651360
H           -9.77214312171955        5.64709984837547        7.83172153005384
H           -9.59743676764843        5.41748190546167        9.56180989420662
H          -10.82985188118340        7.45699271767779        9.06922420684717
H           -9.33756729703819        7.83386306194547        9.91181272206663
H           -9.78799181284254        9.43851814333778        8.12964718459215
H           -8.27597591285725        8.59430967796451        7.85424751700447
H           -9.45900789051012        8.85287399444048        5.76827149625962
H           -9.33692792635059        7.14943448787075        6.16378887506746
H          -11.51875629551068        7.58560687641982        5.26836804806057
H          -11.68764360302232        7.14140216751706        6.95700547570496
H          -13.19821284242593        8.95254034033364        6.40329894264872
H          -12.02857067830252        9.48813824384365        7.59644895986962
H          -12.44618744570650       11.21538780370552        5.92677321134626
H          -10.76337681211433       10.72082837165951        5.91682865615598
H          -11.55608345676942       11.05385667372087        3.65173789587735
H          -11.10650243542600        9.37616930023544        3.89591735311420
H          -13.11945558194596        9.48208926135235        2.57873463940913
H          -13.47868907186516        8.73321504169632        4.12396971656350
H          -15.27136641861071       10.22689560139922        3.49316886252244
H          -14.49450840016910       10.81310268027926        4.95325657330903
H          -15.03551804021878       12.65213544965100        3.46270491205982
H          -13.29649255086698       12.54002696250200        3.69894348806461
H          -13.79423989320915       13.05739389028158        1.38991678093316
H          -13.04685431999028       11.46825071187943        1.47477394252621
H          -16.05411123804113       11.95467760848100        1.23623874566220
H          -14.98709859399684       11.55407536849447       -0.10970669498612
H          -15.25353149232082       10.38288051127816        1.17700367777832
