30
 energy: -73.645427264316 gnorm: 0.000693819142 xtb: 6.7.1 (edcfbbe)
C            2.09623337782173       -0.27193843288013       -0.80403841931329
N            1.01421905121502       -0.16749844069875       -1.74445753539264
C            0.05271151831381       -1.11103060445810       -1.94806602361591
C           -0.78361112045387       -0.63653926412400       -2.91107255852441
N           -0.31809153582182        0.59033586162821       -3.27894544097708
C            0.77219147357255        0.85091400016595       -2.55959309809712
C           -0.91317238896081        1.47901093986962       -4.25024922048606
C           -2.29709602831435        1.98576252763317       -3.83055815007162
C           -2.35841956036972        2.69209093791935       -2.47859208929919
C           -1.48652443143166        3.97426425697202       -2.31836066585654
S           -0.06918899624736        5.27042196614021       -5.65235019690727
F           -1.14696655649667        4.05507448928830       -5.89501889642291
F            0.76004870832931        4.13564152198399       -4.63264332855796
F            0.95885599485746        4.85804188085297       -6.81871410670713
F           -0.92771641838055        6.21252729722163       -6.71001401510675
F           -1.51425868032794        4.74848034119929       -3.42199857388221
F           -1.87574839922942        4.71469927970730       -1.30144307683625
F           -0.21060050032406        3.63473634740629       -2.11840442758895
F           -3.63172164837254        3.02516536143124       -2.20372980892007
F           -1.96069551969270        1.84892995701063       -1.48140746826920
H            1.70236474492874       -0.42921333857927        0.20068954988694
H            2.68594487597606        0.64172576045779       -0.81646251793934
H            2.73786170672814       -1.11567144088660       -1.06060723886627
H            0.02677607153236       -2.03501744224761       -1.40701248809167
H           -1.65109673223391       -1.08564419867726       -3.34940357512446
H            1.35652920527726        1.74880207048143       -2.63523259323994
H           -0.22520638385721        2.30705875123340       -4.41259339574106
H           -1.03258116599301        0.94751890602507       -5.19805960157428
H           -2.65829579575237        2.67681083372863       -4.59413782747300
H           -3.00813486634097        1.15816987420509       -3.76071321100148
