58
 energy: -83.572706834047 gnorm: 0.000494047756 xtb: 6.7.1 (edcfbbe)
C            2.09428437367566       -0.48454813922394        1.61987444298476
C            1.76099156350071        0.68464786830093        2.53884116141756
C            1.91022727049185        2.04721289795022        1.85995942579299
C            1.00804275439368        2.26534699448699        0.64327105006804
C           -0.49143983074500        2.09904999991790        0.90373800247140
C           -1.06484142219207        3.03023440516248        1.97444899767507
C           -1.05874335402624        4.51075093215941        1.58937965511171
C           -2.10512735003536        4.88233553304588        0.53072920685593
N           -3.45102747072136        4.85607171578619        1.06401805892276
C           -4.31166149119474        3.77974460250772        1.02791692259060
C           -4.19849649599788        2.51427427879747        0.46671268222014
C           -5.27257421769760        1.65408102292422        0.60524899516183
Cl          -5.18029122783964        0.08075318601241       -0.06625459236395
C           -6.44341906467517        2.04953062851945        1.29147378482883
C           -6.55736011315637        3.31181405336888        1.84507451303779
C           -5.48008375122740        4.17689501607239        1.70223019879730
N           -5.27645799378602        5.47588320942311        2.11969443744084
C           -4.05521558021717        5.85629151043931        1.72006010293781
C           -3.45534532809487        7.18957558231302        1.93020522875702
C           -6.25591481901743        6.29341238606050        2.80616574928755
C           -6.99883894380122        7.22046816661054        1.83988841910920
C           -7.97384238374311        6.49541254789577        0.90944792789139
C           -9.25910576454330        6.04177093192487        1.60150003510238
C          -10.13593225388905        7.20345069481745        2.02612485726692
O           -9.77461395485912        8.34251611787982        2.14529693352970
O          -11.37706491331012        6.79686078290809        2.27802605625725
Cl          -7.74826515965946        0.94864242398814        1.43673871934552
H            1.37010616665421       -0.57496066950720        0.81409756052808
H            2.08982481849001       -1.41533917259900        2.18146223878286
H            3.08167845729566       -0.35505017048628        1.18317008388601
H            0.74720377219091        0.56698449895086        2.92722997206022
H            2.43848084840434        0.66175411362313        3.39508618630260
H            1.72786157031694        2.83113760312721        2.59876211962520
H            2.94493391812468        2.15659259362140        1.52821296775074
H            1.20438912641262        3.26405733303099        0.24566576652019
H            1.29069138818551        1.55643472143612       -0.13590674456630
H           -1.01228670844869        2.25008280930111       -0.04560238418190
H           -0.68404496385613        1.07152474489177        1.21329232016513
H           -2.08503437890801        2.71919607215049        2.21380299858067
H           -0.47611347243041        2.91419258451050        2.88391011372756
H           -1.22811882483487        5.11088785588676        2.48574326382344
H           -0.07786750760581        4.77694239264884        1.19747296050411
H           -1.90748401734055        5.88427897868867        0.14478469573969
H           -2.06180852494054        4.18025308503478       -0.30172631922937
H           -3.31489853739567        2.18868209485909       -0.05470110523586
H           -7.46184106717743        3.58951427272875        2.35798230207568
H           -3.44126605304342        7.74742754407046        0.99222443217208
H           -4.02075174346693        7.76708228703583        2.65471482758913
H           -2.42757073671657        7.10270583129088        2.27657005324305
H           -6.95098099160240        5.62120850686585        3.30803478952208
H           -5.74806123418214        6.88255927680350        3.57256268709392
H           -7.55707018288100        7.95601360968168        2.41755368163061
H           -6.26864814040478        7.76156686132938        1.23650330332357
H           -8.24923695660678        7.18600828520811        0.11166183343926
H           -7.48887765695101        5.63197700801359        0.44824855499513
H           -9.84852275748991        5.41193534976820        0.93451939046676
H           -9.05459081341246        5.45708786668873        2.50102290884751
H          -11.94275787398027        7.53524248140640        2.55700356829302
