41
 energy: -83.369794471346 gnorm: 0.000695632820 xtb: 6.7.1 (edcfbbe)
F            2.57005794221727       -1.40152307795413        1.23625341387796
C            2.34946569650908       -0.82559201068578        0.03474905716270
C            3.02603026294595       -1.69961331875324       -1.06096062011221
N            2.23315093696688       -2.90396737021631       -1.52010161926622
C            3.18603488931353       -3.75618170794262       -2.26653582582808
C            1.65413462820443       -3.64647140348972       -0.36317076569035
C            0.74272008578690       -4.79084886533686       -0.82790933459100
O           -0.29345516135123       -4.29889077668378       -1.63142900183333
C            0.19896814217206       -3.66483644767929       -2.78218189000219
C            1.11317705843833       -2.48651264001471       -2.42643467004140
O            3.32047055755518       -0.98999395521542       -2.21182323355536
C            4.45563954575178       -0.12351673226555       -2.19674349275729
C            4.63514742179524        0.41756271010975       -3.61561992021142
C            3.33794444161741        0.88352543277190       -4.28124037600578
C            2.49236841700537        1.94339118171383       -3.51208795958728
C            3.27179066059265        3.22413886267561       -3.10630346422626
F            3.89120026108535        2.98530730378162       -1.92964644323905
F            4.22980663284201        3.51148749179826       -3.99427567696590
F            1.42856931298295        2.28599731850469       -4.25610740952084
F            1.99344540664320        1.38640889552045       -2.37672204453896
F            3.62424466299591        1.39128191749861       -5.49603657913122
F            2.52752003724371       -0.18443443289987       -4.52060776036174
F            1.02075517024354       -0.70334316992513       -0.09967123535944
H            2.78531425571673        0.18414921408324        0.04644498876887
H            3.94551596927609       -2.07974545796580       -0.57555757105280
H            3.64820785053550       -3.16446963709846       -3.05443006793367
H            3.95310927926230       -4.13857912064340       -1.59480612361234
H            2.67132960151507       -4.59621657769989       -2.72159972239615
H            1.02840782817545       -2.96857547237071        0.21784940608786
H            2.45987774493593       -4.02400948159758        0.26798136753719
H            0.26696801098841       -5.23489235712069        0.04868876510483
H            1.30838911056478       -5.57633791204539       -1.34822279191251
H            0.70312179024001       -4.38826622018840       -3.43827380454501
H           -0.67210790822928       -3.27591877655129       -3.31261932442601
H            1.53496525999343       -2.04046692542388       -3.32582877475467
H            0.51373999960470       -1.73721077577750       -1.91201345440622
H            4.30742977073619        0.69444576556248       -1.48592217355095
H            5.35385002381660       -0.68226375846293       -1.90540918611947
H            5.34269811787359        1.24731226503294       -3.60936301484238
H            5.03049305700009       -0.36189175029828       -4.27148172673866
H            2.59376322845162        4.08301177327686       -2.99507993941586
