59
 energy: -73.192939190453 gnorm: 0.000580988628 xtb: 6.7.1 (edcfbbe)
C            0.93833492313459       -0.10587437389887       -0.48668241169085
C            0.50906486068125       -1.50759686982460       -0.02253268481339
C            1.00756157944547       -1.99797721407433        1.34950874160315
C            0.57192527655201       -3.27630684399041        1.69181119089620
C            0.92487292310407       -3.87624003954488        2.88175602453122
C            1.73269369271580       -3.17959897360817        3.76586904011134
C            2.19628872523086       -1.90533235406443        3.49132568663710
C            1.83002057645014       -1.30827023026981        2.26210528888869
O            2.30035308358081       -0.07902378465181        2.02408150113122
C            3.06673340819794       -1.26435424652428        4.57591579727890
C            2.23256835740551       -1.16394482961689        5.86452256661290
C            4.29503537862615       -2.15976092863453        4.81086177921079
C            3.59033332785170        0.14037656213005        4.27056638974297
N            0.46505517986250       -5.24146709506617        3.25403592859084
C           -0.37065852735242       -5.12125338419525        4.50146093719576
C           -0.92765025429013       -6.42525406891524        5.00712400139601
C           -2.20191658818874       -6.84132507162776        4.63322753661153
C           -2.72147432257060       -8.02990887388302        5.11473181356550
C           -1.97483447051084       -8.81565782985181        5.97678388713528
C           -0.71222862017568       -8.40185544490565        6.36729341677951
C           -0.19258432610409       -7.21176111518324        5.88907285228986
C           -0.34505881811940       -5.87819234056051        2.20201973153993
C            1.64659092476101       -6.09661600769325        3.48158484645535
C           -1.03018746924105       -1.49437930773206        0.00081180502685
C            1.01883954834154       -2.48495532751507       -1.09714278897524
H            0.55091218050652        0.68316702173941        0.15765632962904
H            0.49629348142984        0.06700839909639       -1.46735560194941
H            2.01599332871694       -0.02503984026515       -0.62808202058036
H           -0.05507770752183       -3.78944174859922        0.98791689427185
H            2.01962483666319       -3.62479312084382        4.70276277194590
H            2.00207442386578        0.25430783526650        1.17042470842547
H            1.93160571371832       -2.13667492322470        6.24500662428260
H            2.81593539933101       -0.67238776773026        6.63808817221714
H            1.33675355393985       -0.57332022145460        5.68691662891699
H            4.85566090765066       -2.27905557082779        3.88664325648560
H            4.94671019225411       -1.69575851819480        5.54603219402021
H            4.03047919187343       -3.14657390123707        5.18165807848496
H            4.21813580315213        0.14755468201369        3.38572414027148
H            2.77870664592190        0.84686726502901        4.13227447706567
H            4.19050984127283        0.47781491155319        5.11262403486700
H            0.24868248257421       -4.66689024602007        5.27484445748863
H           -1.18313941550411       -4.42973534655146        4.26596254338525
H           -2.80102534678367       -6.22568894463306        3.97797138699133
H           -3.71291409672775       -8.33763111274026        4.82170974618113
H           -2.38103907924304       -9.74063317134033        6.35397162787756
H           -0.13325897275790       -9.00083681069092        7.05220988496256
H            0.78245101996198       -6.88730585672444        6.22236782704560
H            0.23566772147088       -5.97137115239905        1.28657777015635
H           -0.63989240634795       -6.87300577659727        2.53265665006774
H           -1.24482603048453       -5.29709032104149        2.01207220481736
H            2.25401427158235       -6.11548771100321        2.57806356555826
H            2.25338478403093       -5.70910972726755        4.29499172902582
H            1.33120595348492       -7.10925479755220        3.72701576864472
H           -1.40926669281133       -1.12287562007308       -0.94748493459443
H           -1.45450733763336       -2.48114524688201        0.15865542349843
H           -1.38890692486689       -0.83911285858331        0.79184070638942
H            0.70353658029957       -2.14734844158508       -2.08083111373817
H            2.10597771779677       -2.52626527022515       -1.08296966808163
H            0.63913960981581       -3.49273609674136       -0.95971914179963
