22
 energy: -32.248819931281 gnorm: 0.000930872784 xtb: 6.7.1 (edcfbbe)
C            0.79026525057453        0.46571625054673       -0.11069024864909
C            0.33117934337840       -0.00137369551999        1.27105860492064
N            0.93933017126912        0.76219179309528        2.34452405264570
C            0.69855036047784        2.07836580467779        2.41290510084679
C            1.12653214238705        2.82246006142074        3.49660554658867
C            1.81900662047045        2.19938186717432        4.52244916317783
C            2.07133642511883        0.83423870127342        4.42347239012885
C            1.60645869704452        0.14224102617506        3.32893130250563
C           -1.21725796283693        0.17781158667977        1.41473884448205
O           -1.66639747014641        1.08718829012511        2.06722115859570
N           -1.93376455618393       -0.73605135799799        0.76002881395938
H            0.45000887724381        1.47312810342194       -0.33312304476136
H            0.39133346594071       -0.19639543787692       -0.87377120218015
H            1.87590166326449        0.43980283320495       -0.17511904542539
H            0.58982465862615       -1.05532083000360        1.40886495312251
H            0.16817681596173        2.54156920075429        1.59757150694846
H            0.91048546376537        3.87809021369446        3.52981883887414
H            2.15857579619226        2.75856345844016        5.37979540124881
H            2.61366514138513        0.31071309271514        5.19437626966242
H            1.76670089385483       -0.92118489807339        3.22809642841255
H           -1.52637354529742       -1.48335401406759        0.22462685371232
H           -2.94006825249098       -0.66723204986050        0.79190831118410
