38
 energy: -44.208122725390 gnorm: 0.000496962931 xtb: 6.7.1 (edcfbbe)
C            1.82132323670717        0.42380705341100       -0.52151911125997
C            0.76248840888762        0.46366717799049       -1.61673104665596
C            0.71871675787842       -0.81686563718227       -2.45592460721189
C            0.21246809580602       -2.05880167207057       -1.70330796934817
N           -1.22829852847152       -2.24796939373419       -1.82852552575280
C           -1.73888089373262       -3.20315563936238       -2.60783610319895
N           -0.85777709213865       -4.13958781201528       -3.12498536670265
C           -0.02799393431435       -3.74277009655670       -4.26023106071364
C           -1.38141133024557       -5.49477393943771       -3.24913208894672
C           -2.70583791641177       -5.48840222645224       -3.99624081771021
C           -3.65894681514977       -4.60567018661317       -3.20720297896386
N           -3.05687910976884       -3.32524250431107       -2.83649145805280
C           -4.00059936895966       -2.22266032330259       -2.83583895982512
C           -2.01537733863273       -1.47753117611424       -0.88362535549882
H            1.61428132484423       -0.34589740319106        0.21834896771560
H            1.85564361309253        1.37906494423099       -0.00553429311823
H            2.80288473695858        0.23235002287929       -0.94723381182533
H           -0.21378118760590        0.66687233549559       -1.17475571367665
H            0.99193515814752        1.29214565458377       -2.28871554255256
H            0.08682855034774       -0.64230145255184       -3.33039624456799
H            1.72925340472121       -1.01912230367105       -2.81374969749932
H            0.71172448265527       -2.95821685587556       -2.05678846125506
H            0.44533029191801       -1.95466679848621       -0.64270277010574
H            0.92519187073816       -4.26716471265107       -4.20244726433085
H           -0.51264398070514       -4.00291414363827       -5.20596017168119
H            0.15392264975739       -2.67367226878311       -4.26007385749448
H           -1.51863098972164       -5.89541775116814       -2.24090433413241
H           -0.63034225092492       -6.09874506907562       -3.75590806853682
H           -3.11529056513497       -6.49277650873554       -4.08034896636457
H           -2.56594573269799       -5.09109159741134       -5.00276953883303
H           -3.96284586049058       -5.11594255507439       -2.28524365740408
H           -4.55903373187707       -4.40619301235191       -3.78951197454687
H           -4.57187430702558       -2.27192341813689       -3.76508469770037
H           -4.70719887462502       -2.28509338009258       -2.00654506706838
H           -3.49125097694825       -1.26620807799588       -2.82317583275984
H           -1.42608335600953       -1.35823142415727        0.02468716867905
H           -2.25611272949642       -0.48001092316236       -1.25317808308178
H           -2.92766571136649       -2.00274692523134       -0.61627563801836
