28
 energy: -32.912469041996 gnorm: 0.000833113413 xtb: 6.7.1 (edcfbbe)
O            0.90158318697763        0.88403726630605       -0.40033028577517
C            0.50005387664609       -0.34289255930743       -0.96398862567840
C            1.13449917044342       -0.52817668771541       -2.34744342941330
N            2.62172090868824       -0.39674315723949       -2.41961144895220
C            3.06090228669967       -0.98812891772566       -3.71873456134040
C            4.54089378483285       -0.77740991014766       -4.02390480979546
C            4.90138300522599        0.70340237707679       -3.97931160415176
C            4.48235777115539        1.28809226872256       -2.63500577523801
C            2.99757918044232        1.04898263491806       -2.39825376427415
C            3.24262621325499       -1.11251088768018       -1.29244334030459
H            0.32396832376797        1.11209843664026        0.33524950281087
H            0.76059922837136       -1.17659975884272       -0.29781328028105
H           -0.58544851345367       -0.36922592657973       -1.12142973356514
H            0.85956836890377       -1.52519642425051       -2.69801898639215
H            0.70584221501305        0.21081372165895       -3.02671119775130
H            2.46764173325333       -0.51959370633046       -4.50735942303833
H            2.83392931873263       -2.05619749542941       -3.70321224140120
H            4.73040387329270       -1.17960108398789       -5.01952237082557
H            5.16882931002344       -1.33812631463773       -3.33094980641779
H            5.97230214564837        0.82951741882861       -4.12858450572445
H            4.38983542955125        1.23206973423326       -4.78545661836757
H            5.08552676854227        0.86669362132317       -1.83096143673452
H            4.64756739759124        2.36546956886438       -2.62780358086941
H            2.67709774067015        1.46516081396806       -1.44354673012460
H            2.43530823845185        1.54309556810872       -3.19330283136426
H            3.01704162477862       -0.59520181003348       -0.36286795553826
H            2.86281433071549       -2.13176155641873       -1.24788674084808
H            4.32066308177978       -1.14929723432397       -1.41325441864264
