27
 energy: -35.961421312789 gnorm: 0.000322965927 xtb: 6.7.1 (edcfbbe)
C            1.05963392231921       -0.59177719136327        1.05229877988071
O            0.32501080698335        0.63101895374145        1.18962271819701
C            0.99358606751384        1.74702220241376        1.35292022959930
O            2.18566449730424        1.88009574419370        1.39859476957047
C           -0.00484932470785        2.91557232388475        1.49316288522047
N            0.64081670853209        4.23464019246284        1.64919840020794
C            1.43095333664268        4.55065178674410        0.44147080119736
C            1.51811298738690        4.28755127288979        2.87301354900588
C            1.06511815340198        5.49398398191330        3.69897464595417
C            0.29735172474692        6.35461959306152        2.70014148368805
C           -0.39219667058495        5.29882917857805        1.85129566033952
H            0.58262828156045       -1.16053938661239        0.25733483823746
H            0.99885302346747       -1.14238515607958        1.99085292090095
H            2.10150063237518       -0.38291757310615        0.80931755551597
H           -0.64973260216949        2.92067795198959        0.61076036445241
H           -0.63029342706951        2.70686553675100        2.36530574189931
H            2.23834753845275        3.82928629789967        0.32983745886321
H            0.79582869044295        4.51298392476901       -0.44215234791641
H            1.85542325697535        5.54767623752533        0.53131064275798
H            2.55509053889469        4.38040525683528        2.55613092106831
H            1.42932802189116        3.35915238698471        3.43333649430971
H            0.40464176855405        5.18133565545222        4.50728583426507
H            1.90931156498856        6.01789684157901        4.13900094466067
H           -0.41928202206277        7.01394851522015        3.18267975198403
H            0.97291700545885        6.96832132303574        2.10529163310429
H           -1.23208656450492        4.87571106989260        2.40457902226356
H           -0.75043791679312        5.66750307934380        0.89176430077591
