50
 energy: -71.790428027843 gnorm: 0.000753805465 xtb: 6.7.1 (edcfbbe)
C            1.67522723571907       -1.15649678347201       -1.61376257011149
C            0.82020309552638       -2.33610689023086       -1.16367638602967
C            1.11078409874661       -2.76807518183837        0.27420810441986
C            0.53946159578706       -1.80409629277762        1.33717556914870
C           -0.93831542738921       -1.90038808330456        1.40997647826595
N           -1.81334418555941       -1.06784109090700        0.82010988262696
C           -1.54086998932404        0.21015164107728        0.20306441677335
C           -1.72015972255277        1.35055837236932        1.22407957188839
C           -0.94629967070851        1.06269531663412        2.40628287153184
N           -0.33634135155108        0.74234254937105        3.31739758937732
C           -3.09203562606277       -1.55223812561058        1.03115407097396
C           -2.95650918820578       -2.73777454087328        1.77035203817977
N           -1.60070491875319       -2.90615504223530        1.99533675355132
C           -1.04635710047914       -4.01207261239812        2.73480390710988
C           -1.71562748122899       -4.21942911606725        4.12562817194894
O           -2.46502636444944       -5.15614592425195        4.26147410863701
C           -1.35970392876850       -3.30322105084689        5.21047054512657
C           -0.71770468183863       -2.07673986339407        5.02205216968294
C           -0.41031407878079       -1.27896804509656        6.10653420716358
C           -0.72377423103550       -1.69450664071205        7.39242556716134
C           -1.36705475779934       -2.90696805460073        7.59287877565003
C           -1.69049082192519       -3.70169785583967        6.51249795586627
C           -4.06227053543211       -3.50767228185357        2.10983019957608
C           -5.29525386857334       -3.03807826007159        1.70414730343009
C           -5.43169378664816       -1.84959882570478        0.98372662178653
C           -4.33711275530297       -1.08629890950823        0.63074609122169
H            1.54752932019250       -0.28467969017923       -0.97470551434897
H            1.41698099738003       -0.87118360838911       -2.62975644579821
H            2.72715669640194       -1.42865636658704       -1.59689101305650
H           -0.24185437010088       -2.10302243278419       -1.27840142175161
H            1.03421977064794       -3.18039841483669       -1.82042025224555
H            0.70659037519246       -3.76783608242909        0.44030620403820
H            2.19066397476630       -2.81914129426770        0.41490568167035
H            0.97133224286314       -2.05468272482892        2.30772996328155
H            0.84701170961597       -0.78465106584155        1.11317057704128
H           -0.52561677641905        0.21343108580022       -0.19501923408461
H           -2.23600736420110        0.34609057183050       -0.62827151203032
H           -1.38951827203568        2.29621447117724        0.78961522782172
H           -2.76942119497136        1.44859602666553        1.51619897533937
H           -1.22225168872288       -4.93716421686454        2.17412350706031
H            0.02570645214357       -3.87445295353868        2.87291940783528
H           -0.47547649785831       -1.71325869082431        4.03651445552892
H            0.07511713681147       -0.32994442968990        5.94153659683650
H           -0.46958125307153       -1.07213771966320        8.23653297322863
H           -1.61672465034775       -3.22975316300999        8.59187415117445
H           -2.18976546776575       -4.64903256277827        6.64865668580398
H           -3.96927183217799       -4.42938400638551        2.65897478735951
H           -6.17849946583882       -3.60705609759417        1.94559077808313
H           -6.41676498051306       -1.52443457631174        0.68952601762117
H           -4.45467641539831       -0.17849046653084        0.06149538862957
