32
 energy: -53.070845631478 gnorm: 0.000535183296 xtb: 6.7.1 (edcfbbe)
C            0.11135413990819       -1.61037194421698        1.79445469481270
C            0.58272938001433       -1.68990384045968        0.35366538050602
O            1.76390215771510       -2.50420366573362        0.19053359230069
N            2.87875943973177       -1.97823995945990        0.74765957242063
C            3.73204039776420       -1.10449671971715        0.14310854748971
C            4.73218384537153       -0.86510761286373        1.03270705904010
N            4.47987824821553       -1.60653102258164        2.15042005620280
C            3.33619707997254       -2.26423197176448        1.96512014375704
C            5.12575044051667       -1.49079720612352        3.42367201901820
C            4.08373277660005       -0.90699209446269        4.42719158195360
O            2.92852488442085       -0.83992923732101        4.06642127766840
C            4.57228827443512       -0.49848069032662        5.73281079884717
C            5.89740533142462       -0.66676289517492        6.15787979844047
C            6.28115039199745       -0.25935784317861        7.41588314188505
C            5.35253516750885        0.32692854061937        8.27581128259211
C            4.03035122706979        0.49718149236135        7.87011143762590
C            3.64875595098614        0.08637879038150        6.61408964579001
Cl           5.84157037736693        0.83502169808393        9.83338568240822
H           -0.06724413493273       -2.60692357051662        2.19012586910314
H           -0.82261449920647       -1.05783462487059        1.82616634640468
H            0.83090276553962       -1.09697457643696        2.42992682258753
H           -0.14248580530204       -2.21056426151488       -0.27226069377070
H            0.76903676722400       -0.69333996995867       -0.06122443586820
H            3.57147097794082       -0.73664501411819       -0.85000300379717
H            5.59342656933822       -0.23470088960721        0.94128060951620
H            2.86950794965891       -2.94422878768251        2.65060303395482
H            5.44109505201299       -2.47169021378826        3.78999878231939
H            5.99150720656672       -0.83499188995988        3.33432253351138
H            6.63448166908602       -1.12490963939063        5.51780600549634
H            7.29980445196141       -0.39083670700355        7.74402821938821
H            3.31650488699001        0.94725647211333        8.54107999673216
H            2.62871663209370        0.20896985467383        6.28307420167131
