31
 energy: -36.074765203616 gnorm: 0.000392779515 xtb: 6.7.1 (edcfbbe)
C            1.48835496303152       -1.28957086493230       -1.72985046282143
O            1.08647219251453       -0.14063174396754       -1.00796911777558
C            1.13418108450640        1.04144377855121       -1.76925706323989
C            0.41763255545265        2.18597174516692       -1.04556277416482
N            0.84783604191932        2.45602413452805        0.36002713718780
C            2.31760554859297        2.42502005604154        0.44624089286887
C            0.33024572134455        3.80574452835993        0.73592233489440
C            0.53862243999785        4.15867294987063        2.20547021311903
C           -0.07718434892162        3.09815850910588        3.11139998644949
C            0.48663717450770        1.72956034718999        2.74561388193150
C            0.24352299473514        1.43797302118531        1.27098459957530
H            1.41811648199317       -2.12421215281908       -1.03684215306119
H            2.51867308525011       -1.18995753348820       -2.08490878421950
H            0.82833176131236       -1.46469644193489       -2.58408693206996
H            2.17727889472312        1.30409421888879       -2.00242223230312
H            0.61278183492685        0.90002728493466       -2.72800191701329
H            0.57923065507264        3.09149080124953       -1.63470558042056
H           -0.65210974347830        1.97013902322839       -1.02618787836475
H            2.67023782703205        1.40812322120883        0.29053490833340
H            2.74560757935579        3.08194103435077       -0.30910701430362
H            2.64871749292664        2.75941929232242        1.42450236076997
H           -0.74054334180443        3.81576648519391        0.51961295212143
H            0.81819130807542        4.54920092608070        0.10217363965110
H            0.06415465903239        5.12459867464867        2.38142892944257
H            1.59784283007034        4.27948552514462        2.43470709392214
H            0.13713700627230        3.32876653314408        4.15348476145218
H           -1.16176032688943        3.09341690682217        2.98921390931877
H            1.54726957339333        1.67640493279855        2.99108193207640
H           -0.01475179778891        0.95208589757296        3.32208288205262
H            0.63731477661569        0.46183021316304        0.98846244778905
H           -0.83350692376477        1.43748869639398        1.08989704680112
