32
 energy: -49.083343343105 gnorm: 0.000267719232 xtb: 6.7.1 (edcfbbe)
C            0.25028527940694        2.64010870261881        0.37627845340354
O           -0.32705105476972        1.52765480119404        1.03125534922061
C            0.38451665540979        0.82541368398624        1.91182483951552
C           -0.27105144149491       -0.27092193987633        2.49924599387693
C            0.37783154582874       -1.06245436720616        3.40590287641238
C            1.71385409955945       -0.80439885265191        3.77019233624761
C            2.35806850361040        0.29758293847062        3.19346105618337
C            1.70842090563943        1.09908154410865        2.28305508385755
C            2.32834531330607       -1.70029168874482        4.72244786350677
O            1.76295012143519       -2.61293113664143        5.28927210650499
C            3.83993054291507       -1.47388741196885        5.05621264733978
N            4.30563418096264       -2.64579882264832        5.73196497853798
C            5.16971899993866       -3.58186929589635        5.24376224962250
C            5.12021910002675       -4.65277007304225        6.07995798664242
N            4.21522755953401       -4.36415006582685        7.05815975184063
C            3.72534452680707       -3.15065865106603        6.82176722871556
C            3.84106857755415       -5.24503483754643        8.13065036320958
H           -0.52542571815764        3.02455147082201       -0.28273618900832
H            1.11784898849658        2.34387731346584       -0.21930448600577
H            0.53774686801065        3.41722444422978        1.08920591043589
H           -1.29152269699998       -0.46577787601297        2.21214655518987
H           -0.12058807406111       -1.90660518530192        3.85673543557631
H            3.37271147860944        0.54862288215565        3.46083054788222
H            2.23165157997909        1.94113169430525        1.85942772098846
H            4.42702157956472       -1.31927630781326        4.15236756048276
H            3.91438523163324       -0.59503217323757        5.70236835859778
H            5.75139057727831       -3.42370022369259        4.35894759216518
H            5.65285552152252       -5.58096295578474        6.04431595595761
H            3.00128083823059       -2.64666689953776        7.43058988439170
H            4.72547488205941       -5.55650812702921        8.68688738252691
H            3.15370664940555       -4.73666908787373        8.80261321822903
H            3.35072887876619       -6.13342349594013        7.73003338798261
