136
 energy: -156.341610751275 gnorm: 0.000322342507 xtb: 6.7.1 (edcfbbe)
C           -4.22408136109899        0.90823924339700        0.06351111956816
C           -3.31171087677004        2.12735547955617       -0.00375450967285
C           -2.01903880964981        1.87170167191952       -0.78031752151726
C           -2.20997074877434        1.51395822390691       -2.25555232479805
C           -2.92937009143929        2.57321016676576       -3.09260660315737
C           -2.25474023887641        3.94643160575681       -3.11428988273182
C           -0.81110909209695        3.95092055911553       -3.62241111178202
C           -0.61587581503448        3.38275668604957       -5.02981265521101
C           -1.45579278921078        4.05420632203580       -6.11677767410217
C           -1.19765688196696        5.55102620583533       -6.29654755144703
C            0.21046383080576        5.91009939858767       -6.77309020772149
C            0.60605169649054        5.32037593063143       -8.12925985060054
C           -0.34253015571205        5.65539257484000       -9.28256124967825
C           -0.48931197480861        7.15740088124217       -9.51796081111561
C           -1.21242697981181        7.49878209847499      -10.82191467069049
C           -2.64094930380496        6.95885360278923      -10.93371278322722
C           -3.57862873647827        7.36035898152712       -9.79500140264971
C           -3.73098803885827        8.86906589760597       -9.64248289467125
O           -4.75381116391005        9.11904261986265       -8.69300008780919
C           -4.82219796349301       10.46359481710866       -8.29137071725635
C           -5.95916926010859       10.63173492649071       -7.26041461668100
C           -7.31957139702438       10.86378169700731       -7.94166078175018
O           -7.55210707936494       10.05694170684570       -9.08689486590050
C           -7.61398702273474        8.69979234211733       -8.85327697360582
N           -8.98213696978509        8.30572545804051       -8.47958848683716
C           -9.34109936751237        7.21199808315231       -7.75494917252194
C          -10.69934975841885        7.22107169944487       -7.65825681320221
N          -11.14631134924735        8.32388449868148       -8.32301861104470
C          -10.08844857070663        8.96306245434293       -8.81327852082988
C          -12.52381657807778        8.71317412917897       -8.46052207512476
O           -6.09909457533503        9.52115288284647       -6.40511218345500
C           -5.02758319425406        9.34275232494458       -5.48614571480676
C           -5.34704737087130        8.16984389335942       -4.56134702937972
C           -4.92069748515294        6.81080899578697       -5.11793963623526
C           -5.60403164222740        6.47671958160799       -6.44097771330171
C           -5.23249001871306        5.09819772330790       -6.98934603266210
C           -5.78442244807337        3.91389414361537       -6.19321023067896
C           -7.31034787313677        3.80030843325607       -6.18016803923185
C           -7.95807982573100        3.66165459534674       -7.56027958022136
C           -7.50838541515252        2.43709469571752       -8.36047575652929
C           -7.78207562390039        1.09006806463102       -7.69053096965311
C           -9.25242818181025        0.81343433537674       -7.37179075854491
C          -10.19478884339072        0.85997513729511       -8.57641555263349
C           -9.84186689328066       -0.10573971068839       -9.70944296794280
C           -9.80075811667371       -1.58158733391624       -9.30984690145759
C          -11.10755732620480       -2.13303388342023       -8.73687435680954
C          -12.32168118921427       -2.01311593326895       -9.66055227433204
C          -12.17153028378412       -2.70390765329358      -11.01689644877665
C          -11.96580506282895       -4.20968380833823      -10.90507423248568
H           -4.60226441888455        0.64544520938836       -0.92128280038391
H           -5.07558777596232        1.10892987315683        0.71013152591331
H           -3.68488613958500        0.05295398874956        0.46458569060427
H           -3.85360060052466        2.96430425871750       -0.44867627962769
H           -3.04200052556655        2.42070613150332        1.01386024019293
H           -1.38446337393416        2.75674617276355       -0.70248825311867
H           -1.48417784577999        1.04820920655495       -0.30059531907233
H           -1.22617971296402        1.32265161701487       -2.68837417280341
H           -2.77454122925434        0.58212266754832       -2.32722004723088
H           -3.01520139665920        2.19797761647294       -4.11504439584101
H           -3.94666147414933        2.69897288576045       -2.71381093995000
H           -2.85727443167421        4.61368333746109       -3.73581979020349
H           -2.25996996648065        4.36318169620232       -2.10493608185079
H           -0.44375923760808        4.97941286360430       -3.59409990007466
H           -0.18821805715698        3.37504733616473       -2.93579603405094
H            0.44188032938598        3.46395309333398       -5.28748101281731
H           -0.86074710191204        2.31873701394740       -5.02332524176704
H           -1.26842902158756        3.54168162722771       -7.06249943825908
H           -2.51242100527137        3.91131122294517       -5.87997841702001
H           -1.92483865838299        5.94281343635341       -7.01277592760166
H           -1.37695287145639        6.06158375560977       -5.34759158138661
H            0.28813468087018        6.99877140256655       -6.82120356981312
H            0.93629416602985        5.57346095889129       -6.03092259963022
H            1.60400754347272        5.68997098600953       -8.37740271417817
H            0.67769268725720        4.23451896227487       -8.04343750605317
H            0.05316145800849        5.19496488804400      -10.19124953663679
H           -1.31975447895194        5.21040270421650       -9.09107379542658
H           -1.01488385591102        7.61422177244307       -8.67867864544119
H            0.50746570552955        7.60310498233309       -9.55928215219899
H           -0.63793366426509        7.09233211268042      -11.65738141734967
H           -1.22789915756004        8.58452098024964      -10.94052168439525
H           -3.06331777641922        7.31004225817083      -11.87846187156292
H           -2.60911842759358        5.86917910760953      -10.97655930040489
H           -4.56797148487257        6.93751449239946       -9.98511878068775
H           -3.22448230759603        6.94754425054504       -8.85055395127437
H           -2.79141870282982        9.31898674796499       -9.29572332310580
H           -3.99866160952845        9.33330570835135      -10.60344696922151
H           -3.86484548832895       10.77193483614436       -7.84475894911277
H           -5.02112044963977       11.11913545477495       -9.15153778472656
H           -5.73953964265150       11.53109720067199       -6.65983707596386
H           -8.10632537198953       10.70923041435047       -7.19193307820640
H           -7.37017563706319       11.88734735314150       -8.31448957793579
H           -7.35635914972675        8.19409038057624       -9.79104357268351
H           -6.93567063479657        8.37657694964501       -8.05555306600063
H           -8.62384690185059        6.51496841932741       -7.37086667055526
H          -11.36189318612844        6.53526398004067       -7.17084450284224
H          -10.10413263931473        9.86913218277275       -9.38773252972063
H          -12.59420732603772        9.62041006389715       -9.05601500445749
H          -13.08942072843870        7.91979157889699       -8.95036196455050
H          -12.96287406015140        8.89511850577033       -7.47881920947183
H           -4.09254567536539        9.15266567669499       -6.02457563447174
H           -4.91190996119196       10.26829259161278       -4.90332923115517
H           -4.83526906293155        8.33421934789921       -3.61230966579852
H           -6.42180861361508        8.17429887159334       -4.36936651563384
H           -3.83854596727945        6.80452130851478       -5.26072190700726
H           -5.16220479208541        6.05035193314840       -4.37351419492651
H           -6.68480762746121        6.54410021722299       -6.29626156163655
H           -5.31364918207719        7.22579639353440       -7.17893023493133
H           -5.57359741810882        5.02469643786253       -8.02432318211962
H           -4.14474636861878        5.01769493516661       -7.00852957731352
H           -5.36445222180522        2.99747029193687       -6.61022036779459
H           -5.43828597572243        3.97940423545734       -5.16016792940468
H           -7.58083739358754        2.93384630828676       -5.57548716106165
H           -7.73494573399603        4.67507356358738       -5.67879430818239
H           -9.04241776291406        3.62436472341341       -7.42905748555945
H           -7.73607246099824        4.54933583878868       -8.16079557648445
H           -8.01063220986981        2.46306553779159       -9.32987912973963
H           -6.43694639698577        2.51194656320335       -8.55561211561106
H           -7.40562761846072        0.30501135577530       -8.34825364227263
H           -7.21191466838146        1.02558494294179       -6.76166451283692
H           -9.31756458375472       -0.17171030887318       -6.90725462232154
H           -9.60525331311787        1.53580187197879       -6.63130370526393
H          -11.20560279544554        0.64352762269486       -8.22471937588322
H          -10.21069875181969        1.87417290033012       -8.98503774495278
H          -10.57321167219396        0.02773627242630      -10.50937775807050
H           -8.86706816411066        0.16385520946290      -10.12198590160642
H           -9.52295134978866       -2.16290541325433      -10.19104933310074
H           -9.01253205103430       -1.73306411029457       -8.56933550543302
H          -10.95203050137683       -3.18441394821746       -8.48860106201919
H          -11.33819385790914       -1.61770437261381       -7.80169902483683
H          -13.18211609959002       -2.44631148508729       -9.14385606754574
H          -12.54530149809576       -0.95717218045369       -9.82943303281897
H          -13.07963172054415       -2.51464531328013      -11.59514329294794
H          -11.33914666583257       -2.26317180569213      -11.56846000052871
H          -12.76594484442336       -4.66069339046342      -10.32214059317005
H          -11.96486766071417       -4.66384311911658      -11.89332354024975
H          -11.01789218900082       -4.44186059586896      -10.42671583652828
