33
 energy: -48.889533759298 gnorm: 0.000700396921 xtb: 6.7.1 (edcfbbe)
N            1.29589848721093        1.08288368157835       -0.64380426327465
C            2.26801544142413        0.51205740226470       -0.45481538499102
C            3.54326024174656       -0.12451739225585       -0.25799603769698
C            4.39900368639212       -0.09764548303667       -1.53825276621725
C            4.21149842315501        1.17035851234259       -2.38176009669864
N            4.35301324658442        2.39182127718065       -1.61669785645315
C            5.40168517777294        2.72856140165042       -0.87844239963057
N            5.21923288149239        3.90598835130055       -0.28339221311060
C            3.96736477043972        4.36770192729285       -0.64185513214735
C            3.41491805891086        3.40120715190728       -1.50474095395973
C            2.15018400335780        3.57287216293325       -2.05634671937704
C            1.46730684893616        4.71928983976395       -1.70927703031224
C            2.01593552251303        5.67557185131044       -0.84956701294285
C            3.27226620933582        5.52179347110436       -0.30192954186782
C            6.09071777057821        4.48521155315203        0.71160084604468
C            5.64383139243253        4.05104701808243        2.12360598132892
C            5.44849192622550        2.62434386957575        2.12310859050835
N            5.27906142014460        1.50203548793281        1.99071776624343
H            4.04979449492280        0.39056876025993        0.56530808738928
H            3.37860521144012       -1.15751800261908        0.05530580021071
H            5.44589091751684       -0.22210135412544       -1.25928459114215
H            4.12703745781579       -0.93813153981147       -2.17829735542973
H            4.94122185605152        1.17352118802639       -3.19738124261810
H            3.21036555711567        1.17827777360995       -2.81456606203924
H            6.29037700993103        2.13418354952338       -0.77672061242533
H            1.70707643423153        2.84436845485447       -2.71340981082617
H            0.48014478016424        4.88336936598797       -2.10990534360127
H            1.44013577414121        6.55483771119907       -0.60865288752609
H            3.68997494578045        6.26640717631075        0.35600472793093
H            7.11048520105118        4.14277286827018        0.52040822122768
H            6.05998514250628        5.57290542326131        0.62625757246942
H            6.40203753751087        4.32540191204956        2.85917550851555
H            4.69933217116606        4.52815462912399        2.39922221241861
