37
 energy: -42.916081876661 gnorm: 0.000268346134 xtb: 6.7.1 (edcfbbe)
C            1.18134766857509       -0.11034900884590        0.29702001978605
C            0.71968038993865        1.22548204806702        0.86700462651565
C            1.13482311729996        2.42302227387194        0.01055901474013
C            0.54710311304310        2.44059362571649       -1.40233144296164
C           -0.98212432537549        2.43018184352810       -1.46766085661148
C           -1.66910303326789        3.57716414649464       -0.72163823715570
C           -1.26570001280095        4.97850997558656       -1.18166611342380
C           -1.64742159805027        5.29249359934581       -2.63364147966491
N           -3.08215901270185        5.31532301916865       -2.80453264546537
C           -3.86227444573916        4.26586561667973       -3.17938322583307
C           -5.15705562914834        4.68847827579680       -3.14698012451969
N           -5.14712211892841        5.98985581363747       -2.74639657643860
C           -3.88167929882938        6.34591158885198       -2.54307838281505
C           -6.30837894002783        6.82506529214351       -2.59857743817840
H            0.68646839881316       -0.33307261615731       -0.64504725935672
H            0.95371867772495       -0.91305307724969        0.99379992047952
H            2.25552011861356       -0.10020837427676        0.12848427711675
H           -0.36448586567793        1.21197535229251        0.99597856904012
H            1.16007723946899        1.35448159724248        1.85795280140546
H            0.86153030070804        3.34197039187196        0.53441013323193
H            2.22289600317782        2.41907818500688       -0.08292068632799
H            0.93307236514768        3.31906136698772       -1.92562926205419
H            0.90948933898959        1.56732417759716       -1.94599760142420
H           -1.27737458777658        2.43285477249301       -2.52063573983870
H           -1.34749444608880        1.49451576765591       -1.04336139449973
H           -2.75313468453492        3.45705802824858       -0.81054110792433
H           -1.42861330484531        3.49586753043419        0.33810330889697
H           -1.72966267861872        5.71827791838114       -0.52532661581939
H           -0.18638262893512        5.09241977862891       -1.09385009185448
H           -1.24996005506099        6.26939993054589       -2.91612536529701
H           -1.23381535675884        4.53687277589657       -3.30191261705786
H           -3.45761315913883        3.31066848859045       -3.44491712851749
H           -6.06157669442237        4.16295200772130       -3.37603073758926
H           -3.55426622319222        7.31682926543874       -2.22494041050415
H           -6.02999911748739        7.77032427353698       -2.13849562712135
H           -6.75616344418374        7.02293127621903       -3.57378633134306
H           -7.04933606990811        6.32659307285115       -1.97366817161262
