19
 energy: -37.333139750151 gnorm: 0.000429523878 xtb: 6.7.1 (edcfbbe)
N            3.56917061442765       -2.11425601250206       -0.20536058838415
N            3.47616650224156       -1.01847811713191       -0.01861499364292
N            3.14657768763665        0.11649399565502        0.17925249944500
C            4.02620673539704        1.23360117305866        0.38250516877761
C            3.38065706560460        2.49583718581722       -0.17966125016608
N            2.08789066460136        2.80380581972011        0.50773085884777
C            0.92762268468116        1.97236724886886        0.04995496999262
N            0.02315385479945        2.70372880698188       -0.40109844048227
C            0.48765088924647        4.04544148098359       -0.26471720053448
N            1.66884706948633        4.12028486548841        0.26484002361473
N           -0.22809438980526        5.08435723474736       -0.64144841632742
N           -1.32576990661887        5.17221075663691       -1.12605631976785
N           -2.30135372922370        5.46195893804676       -1.56922066679622
H            4.22742919680887        1.35928604302859        1.45627816975324
H            4.98708318764224        1.09222588517015       -0.12649936504098
H            4.03229251783773        3.35966892021212       -0.03038667929186
H            3.16935297564051        2.38892622256840       -1.24654506198984
H            2.24516996460513        2.67339401324121        1.52079117275387
H            0.96988641498979        0.90085553941136        0.10544611923239
