113
 energy: -118.047719497268 gnorm: 0.000315450699 xtb: 6.7.1 (edcfbbe)
C            1.75988916400303        0.15218737617981       -0.49871132032894
C            1.75525711268965       -0.02666611836191       -2.01216391696333
C            2.34742073104452       -1.36268899651852       -2.46441690082217
C            1.60981043029605       -2.60329690345295       -1.95501760514414
C            0.12080168156566       -2.65663116319627       -2.30058558676074
C           -0.18891200589228       -2.62093256579404       -3.79773618377953
C            0.32136987878908       -3.82504117763709       -4.59141661412893
C           -0.22835508948622       -5.18389339241955       -4.14442301315203
C           -1.74990139617059       -5.24628267508225       -3.98751785395755
C           -2.51567809332200       -4.95964252057294       -5.28616927995794
C           -2.98295914243380       -6.22156342374457       -6.00990410739681
C           -4.15758756242444       -6.93451222998087       -5.32502331162000
P           -5.82234420159878       -6.32943268693119       -5.79760256220077
C           -5.94376479555856       -6.35340074718888       -7.62737082353251
C           -5.30477641733744       -7.53778599527730       -8.35786195974373
C           -5.95981588934304       -8.89442989269283       -8.10133992194195
C           -7.39605544112262       -9.02761878006033       -8.61384025400422
C           -7.56804570431893       -8.78793081425358      -10.11628103047466
C           -6.70464369388664       -9.67162581964213      -11.01918210426694
C           -6.91826981917067      -11.17607908213319      -10.84430328529315
C           -8.33506952737737      -11.62515188629451      -11.18084134471527
C           -7.15810328760404       -7.39763707259949       -5.11644322491323
C           -6.76206052066466       -8.38171354523488       -4.01358981059850
C           -6.55745946571392       -7.72160014113761       -2.65015261792012
C           -7.85782881027871       -7.31376465109111       -1.95203069429227
C           -8.73965859472226       -8.48014847960459       -1.49919489416767
C           -8.09362079658287       -9.43436723553495       -0.49249593820427
C           -7.61541160909159       -8.77820504077333        0.80383347484405
C           -8.74062800300870       -8.12194585255732        1.59530564528444
C           -6.23140084182110       -4.57788618368465       -5.41412650319843
C           -6.56462429703617       -4.21467628500082       -3.96524092121920
C           -5.34175613879230       -4.04703698936560       -3.06123411515809
C           -4.64055528637639       -2.69657095235521       -3.24187851533909
C           -5.28850432690997       -1.55946163152244       -2.44892927664361
C           -5.07548892865741       -1.63673824574033       -0.93500007061387
C           -3.61657797618895       -1.57383453037322       -0.47664585026950
C           -2.90295578159256       -0.29411187881728       -0.89621941368990
H            1.10343494260630       -0.56686691620907       -0.01474812652018
H            1.41904602578359        1.15130330342487       -0.23670558123156
H            2.76459430194368        0.01976104953272       -0.10391714783778
H            0.73540544732405        0.07636837680278       -2.38810853712806
H            2.34709486781276        0.77394230647673       -2.46212013930488
H            2.37716373651938       -1.38006101548970       -3.55613164673368
H            3.38101654732538       -1.42050594168975       -2.11493827178808
H            2.10828333973157       -3.48692461057191       -2.35957810100289
H            1.70672626491625       -2.65369018935241       -0.86893640520273
H           -0.29844128606900       -3.56484219350692       -1.86092187794474
H           -0.38312707017537       -1.81165198563573       -1.82882969619443
H           -1.27034147582615       -2.53378223067795       -3.93128006916399
H            0.25239100932045       -1.72144013096361       -4.22912462949837
H            0.08310442938856       -3.65992682910679       -5.64547444581970
H            1.40898935598506       -3.86601364388204       -4.52287239619310
H            0.09133762990798       -5.93747039523354       -4.86848334671284
H            0.21827752194504       -5.44921732858565       -3.18500875178641
H           -2.00883760460991       -6.24007445166557       -3.61309127645086
H           -2.04814384771267       -4.53196420903876       -3.22079697592985
H           -3.37587765742188       -4.32591393937127       -5.07819965167695
H           -1.86802154329371       -4.40404797851033       -5.96299924628714
H           -3.24880886925641       -5.96167739119546       -7.03615426232329
H           -2.14616672873008       -6.92107425101644       -6.05872083425254
H           -4.16438202700689       -7.99188021793400       -5.60946931041527
H           -4.05566525540765       -6.88842755753130       -4.23954294785849
H           -7.00829415058438       -6.28839112204178       -7.87030196232280
H           -5.47696145230496       -5.42525912736987       -7.97432352617134
H           -5.34856631225839       -7.32323153131471       -9.42655407553846
H           -4.24893838666662       -7.60961712525411       -8.09280569088609
H           -5.34915060685003       -9.65351552288596       -8.59119460887852
H           -5.93843413486696       -9.11355196146995       -7.02921465274381
H           -7.74381921708524      -10.03329071955321       -8.37375826069629
H           -8.05449127297173       -8.33077071893646       -8.08617888085879
H           -8.61822456501488       -8.95125167494645      -10.36155491616451
H           -7.35050384298173       -7.74231388563127      -10.34826333401658
H           -6.93147992138829       -9.40903803912884      -12.05475157362831
H           -5.64859995808598       -9.44471128789296      -10.85540772371600
H           -6.22046961131919      -11.69189783980502      -11.50734459082317
H           -6.67360101102997      -11.47535325238415       -9.82309980216085
H           -8.60920605319923      -11.29869846221656      -12.18121551680422
H           -8.40210967396733      -12.70958681433438      -11.14619319076344
H           -9.05756169377724      -11.22117985979381      -10.47596764716415
H           -7.94549959257941       -6.73008131542189       -4.75744823954588
H           -7.56616266506203       -7.94834418022197       -5.96642692119584
H           -7.55438897364302       -9.12647343065555       -3.92987136835234
H           -5.85506316335278       -8.91698562618536       -4.30127395757069
H           -6.01911157790997       -8.41392345805701       -2.00326177045475
H           -5.92983692939203       -6.83457215287034       -2.77398070523206
H           -7.60076349989833       -6.70799452895181       -1.08244578289533
H           -8.45625922895248       -6.68186667288005       -2.61441277386397
H           -9.64388440975701       -8.06057596197345       -1.05650409262240
H           -9.05636363740395       -9.06194253871100       -2.36816485518625
H           -8.83233546381260      -10.19819645565041       -0.24057889105230
H           -7.25066821350981       -9.94806988420405       -0.96062767414457
H           -7.15737185720630       -9.55305691895215        1.42216577823778
H           -6.84084121015650       -8.03928417154117        0.58791030735847
H           -9.54108584223815       -8.83471900037529        1.77878680145781
H           -8.36934177118363       -7.77241567752886        2.55536127669176
H           -9.15433903558588       -7.26839193727819        1.06395363397626
H           -5.41750515637142       -3.95468193098066       -5.79176087203004
H           -7.10862617642221       -4.38260594031997       -6.04357347028463
H           -7.11639829697847       -3.27281522829203       -3.97889848643603
H           -7.23103276208151       -4.96679245914889       -3.54174713780618
H           -5.66111015794782       -4.13708823832866       -2.02290233838414
H           -4.63692387311869       -4.85833944795619       -3.25291927625298
H           -3.60026869807530       -2.78649336785584       -2.92996155888158
H           -4.63778190662598       -2.42079505947674       -4.29974711340344
H           -4.88546632598156       -0.61335959655330       -2.81123035634891
H           -6.36360637737964       -1.54655034365193       -2.64436375208330
H           -5.61480769568307       -0.80248950659335       -0.48166399260998
H           -5.52151356744668       -2.55523074195740       -0.54571515845211
H           -3.60920350670598       -1.63826980077747        0.61349837720058
H           -3.06481393757713       -2.43906938190364       -0.85069873839102
H           -3.47540922487848        0.57815178298419       -0.58980344181791
H           -1.92448590085951       -0.23878103641247       -0.42492579938145
H           -2.76165510812589       -0.25371026507431       -1.97376231576014
