49
 energy: -84.102496664179 gnorm: 0.000618444500 xtb: 6.7.1 (edcfbbe)
C            0.75006026224756        1.50357686336199       -0.97642279536785
C            2.16666869276712        1.17805946880215       -1.41830823444464
O            2.17741236322844        0.37308061800385       -2.61407557769127
C            2.04733369833417       -0.92537095311486       -2.47754497267932
O            1.89851384625068       -1.53936479145913       -1.45636563760607
C            2.13121178450294       -1.62276752189538       -3.85267213444690
N            1.86218310100707       -3.02460602447505       -3.69872301172835
C            0.76637471200974       -3.55323108918532       -3.10143708925843
C           -0.38069479128857       -2.81154566499614       -2.71073706595641
C           -1.40898718014734       -3.07827380807069       -1.81652657474549
C           -2.21086977587333       -1.93807246585929       -1.77895155299170
C           -1.64688509275358       -1.02162317297170       -2.65227523285543
O           -0.54137844637307       -1.55297509245460       -3.20601947223905
C           -2.04832972659069        0.31571778449208       -3.01467204103538
C           -1.27910523111189        1.07011306415349       -3.90921700225555
C           -1.65111823582275        2.35145649040936       -4.25258661162105
C           -2.80397312734135        2.90493190575128       -3.70430139546786
C           -3.58067385722304        2.16824083368436       -2.81482487315829
C           -3.20653092676657        0.88663677543694       -2.47423366194703
Cl          -3.26840062928396        4.50216870092310       -4.12614418737571
N            0.93318714016693       -4.88489743006029       -2.95379402035180
C            2.18087025256232       -5.22342241870984       -3.43033899992176
C            2.77595695039318       -4.03793949547030       -3.90115939950705
C            4.04454514718042       -4.03870329817947       -4.45592154275309
C            4.70081372651762       -5.26414670727973       -4.51982080528105
C            6.00351726176381       -5.31963019004784       -5.08015289786260
N            7.05247315376181       -5.35905874865973       -5.53474877802556
C            4.10964994127133       -6.44683502277857       -4.04604143038616
C            2.84582942859593       -6.44224799684986       -3.49564250634791
C           -0.02325550200518       -5.82602366361383       -2.43724417163488
H            0.20948645388794        2.01619032384259       -1.76803285810634
H            0.79107388108201        2.14751599098997       -0.10338365157826
H            0.21520716440930        0.59445518557111       -0.71175699078338
H            2.71268044927651        2.08152554805435       -1.69217109439440
H            2.70064318946295        0.63934408050932       -0.63034712649503
H            1.42688843181930       -1.15306372643769       -4.54284843430350
H            3.14064926052245       -1.49156525431957       -4.24505936366848
H           -1.55124050380159       -3.95898991793413       -1.22718265537715
H           -3.08678548391517       -1.80327567590052       -1.18018001654627
H           -0.38166790919364        0.64446910120165       -4.33063990868130
H           -1.05514002532753        2.92841942411712       -4.94155943786897
H           -4.47334787586335        2.60441517903608       -2.39654213404554
H           -3.81524082569932        0.32296196364831       -1.78653313054813
H            4.52350282762527       -3.14711807978131       -4.82798604540366
H            4.66415499897094       -7.36945114522946       -4.11769779873285
H            2.40511756435804       -7.35427359057662       -3.12856356724168
H            0.00042298221011       -5.84449622434529       -1.34605743007497
H           -1.02473064783740       -5.56365434738874       -2.77633536299991
H            0.22393712805352       -6.81820578390164       -2.80926931617189
