21
 energy: -22.517431440061 gnorm: 0.000557663405 xtb: 6.7.1 (edcfbbe)
C            1.20744193520883       -0.08498321814666        0.01388791082921
N            0.65521354570924       -1.26676066955885       -0.67156497016566
C           -0.04638359688475       -0.82873778050654       -1.89005670235348
C           -0.28458815212617       -2.00316118941010        0.23875868104274
C            0.50590236433659       -3.18945771768616        0.77236250218577
C            1.31910297010712       -3.58976968177117       -0.45355337042842
C            1.75689001013207       -2.23676043440746       -1.00538522049603
H            1.66786121411544       -0.37994470724530        0.95528735804535
H            0.41565115706951        0.63423813043243        0.21897012167862
H            1.95767096727984        0.39531517614027       -0.61279201241836
H           -0.89614830998320       -0.20034744547875       -1.62635910220814
H            0.62677824604550       -0.25463891399977       -2.52524680268735
H           -0.40609407593188       -1.69252201103496       -2.44679255488259
H           -1.13100098945984       -2.36137682125890       -0.34846486637804
H           -0.65571605256869       -1.33953571218682        1.01765867649055
H            1.16079160329376       -2.89514986846045        1.59245287711455
H           -0.14711732678166       -3.98315955008305        1.12472448951121
H            2.17119076771772       -4.21864356118119       -0.21043510035930
H            0.69291070150794       -4.12367618411353       -1.16819892691447
H            2.67236261230666       -1.91139978183508       -0.51125495525382
H            1.93174040890597       -2.25279805820797       -2.07966803235235
