24
 energy: -36.047212034513 gnorm: 0.000682763336 xtb: 6.7.1 (edcfbbe)
O            1.16633576157840        0.05903988296410        0.33627838755365
C            0.46722086297842        1.00649109784997        0.99429293551635
O            0.96513444273093        2.00576229537085        1.41206024892608
C           -1.00582166619039        0.65515493947056        1.08857672851507
C           -1.77791307832737        1.21464284544304       -0.11039423213332
C           -1.40964160687406        0.54421787954243       -1.44170883624127
N           -1.84836354219012       -0.84114517147182       -1.46400747631017
C           -1.00756036002016       -1.81256068014213       -1.09193689483822
C           -1.42044581988649       -3.12962829333277       -1.04296970040847
C           -2.72776346455854       -3.44663155466422       -1.38635810190773
C           -3.58405004882972       -2.42111305467307       -1.77067737261209
C           -3.11330252818945       -1.12550542777166       -1.79646311583043
H            2.11085155973190        0.28720430899074        0.32597102385041
H           -1.12029598862226       -0.42675552894596        1.16825557539042
H           -1.39229878578097        1.11953320444116        1.99588145594939
H           -2.84885482047027        1.10420907799387        0.07053295807598
H           -1.56223179630581        2.28013287038574       -0.20041155663803
H           -1.89136679578744        1.08061983977425       -2.26140993241799
H           -0.32919198267416        0.57423251522369       -1.58841539577218
H            0.00073657218304       -1.52189076702650       -0.82888395440442
H           -0.72293764647812       -3.89426671370316       -0.73926800384777
H           -3.07259207375820       -4.46825662720308       -1.35809462437160
H           -4.60584816590431       -2.62379122742235       -2.04965957392418
H           -3.74571902835548       -0.30003571109351       -2.08983054212032
