32
 energy: -40.660661222260 gnorm: 0.000631600250 xtb: 6.7.1 (edcfbbe)
C            1.07384592426464        0.43057453976708        0.07856603780195
C            0.61434957579675       -0.65372460215911        1.04637125116988
C            1.00011704758893       -0.37209786469184        2.49994813763564
C            0.42661034557561        0.93761948731569        3.05215203517390
N           -1.00267194359116        1.03034294888561        2.85085646660490
C           -1.65714793321945        2.05173506664738        2.23374450637987
C           -2.98050252828102        1.73072811302489        2.20595250652452
N           -3.11219784798400        0.52043695645639        2.81460021702678
C           -1.90354940441669        0.11490211024069        3.19259144816498
C           -4.30918749119098       -0.27540043650207        2.88914577114697
C           -4.33938170948522       -1.26837616898959        1.70634161725093
O           -3.09552268350087       -1.94053652558681        1.73415851777248
C           -5.52327708318607       -2.21658069748354        1.83998622033222
H            0.53439484562015        1.36296405422516        0.22869363212447
H            0.90062524304211        0.11049087836756       -0.94498296886847
H            2.13769016410014        0.62057263731509        0.19593862200945
H           -0.46695744756196       -0.79133323005379        0.96569986218548
H            1.07898096957843       -1.59808756474176        0.76101979257313
H            0.67683460501536       -1.20753882626465        3.12240638528445
H            2.08565278653707       -0.30597876831205        2.57818591434845
H            0.64206031258241        1.00818973429370        4.12235698747368
H            0.88689922484826        1.79077297541477        2.55283980392181
H           -1.15493373464109        2.92352950700049        1.86656534754963
H           -3.81369826878912        2.27276144893937        1.80780887558890
H           -1.69864469275709       -0.81866629803781        3.67760714071845
H           -4.30059724748971       -0.84171461368812        3.82248177470838
H           -5.18317979759906        0.37452972442435        2.86028679224700
H           -4.42171369656403       -0.69716743508242        0.76641071437840
H           -3.16018165919061       -2.74579310993292        1.20866584942375
H           -6.45302419545416       -1.65810877404259        1.89038797928689
H           -5.57180143932010       -2.88026797796176        0.97992135566296
H           -5.42452024032792       -2.81941728878761        2.73967140639810
