26
 energy: -38.042992517876 gnorm: 0.000507783070 xtb: 6.7.1 (edcfbbe)
N            1.27982815046791       -0.47711848702971        0.09839533909487
C            2.40066407601547       -0.27291870122132        0.06654998826741
C            3.83603931128416       -0.06061653859056       -0.02792802733143
N            4.34123022966154       -0.61543189944641       -1.26512178419208
C            4.29866141813437       -1.91305210007812       -1.60767732626673
C            3.78772459664051       -2.98876745381156       -0.73851080336116
N            4.78044778201968       -2.07166527878150       -2.84233270587056
C            5.15908327409214       -0.83334584051835       -3.32998600882458
C            4.86939653700752        0.10371836602642       -2.32242240723456
C            5.12646743530452        1.45683041944605       -2.49573092335899
C            5.68252271484744        1.83764096726494       -3.70022673729165
C            5.97531440502405        0.90780732117085       -4.70032787425378
C            5.72108466958667       -0.43873229628924       -4.53736637315884
C            4.88543435865430       -3.31935834526899       -3.55575468780762
H            4.04221754439024        1.01248276971314       -0.00703824751526
H            4.32431318014055       -0.52748534461454        0.83614825401471
H            4.14271322414255       -2.86253093551709        0.28351734660471
H            2.69635187390175       -2.96662704282999       -0.70698391981333
H            4.10306138106643       -3.96401232242025       -1.09687827981863
H            4.90536923045726        2.18756900638636       -1.73490187214135
H            5.89773753465415        2.87958050488962       -3.87428116340937
H            6.41177071278922        1.25314572444874       -5.62364151285263
H            5.95488906560949       -1.14428632328877       -5.31728720036644
H            5.67634041004979       -3.94090399810950       -3.13209855038657
H            3.94087178827576       -3.86119048413347       -3.51689014269851
H            5.12448509578255       -3.11268168739716       -4.59544438002750
