34
 energy: -39.767598046571 gnorm: 0.000277963718 xtb: 6.7.1 (edcfbbe)
C            1.07335316212135       -0.03399075109835        0.05058024014793
C            0.34871702474376        0.69611450378020       -1.07572086444177
C            0.74802017520568        0.13866038334044       -2.45887744582662
N            0.39841685577402       -1.25212072738053       -2.61408356825454
C           -0.79224507427927       -1.73130937593462       -3.06784407716699
C           -0.73825766320915       -3.09036734707561       -2.99403696652461
N            0.48183353464547       -3.42112387051342       -2.48827715474000
C            1.15228450166975       -2.29325854787935       -2.26895195195598
C            0.98405894746198       -4.76303800747832       -2.32300283299713
C            1.49003089484270       -5.34895242697917       -3.65585995389253
C            2.68853121452178       -4.56244506874692       -4.17713721456801
C            1.85602871649287       -6.81436355778128       -3.44222279630169
C           -1.16246878226738        0.65743100723692       -0.87085763427596
H            0.75197742759687       -1.07166730714989        0.12280959076706
H            0.85011557173056        0.44539579573781        0.99889733074174
H            2.15087440552142       -0.00378271362238       -0.09220148027455
H            0.67242390628080        1.74078556753732       -1.07611522695862
H            0.23905258513415        0.70594743010789       -3.24038557999850
H            1.82679577231708        0.24015753142889       -2.59437773334588
H           -1.57848684201280       -1.09189477178215       -3.41283718219141
H           -1.47184952328615       -3.82481772432838       -3.25646341153728
H            2.14910346092074       -2.23308605674907       -1.87808056168643
H            1.80017793774679       -4.74469285308919       -1.59800183610532
H            0.17779107554740       -5.38686443245753       -1.93109485849573
H            0.67861656329220       -5.28936186007762       -4.38896611663833
H            3.50556689313819       -4.58822041767653       -3.45950883692765
H            3.04334598761675       -5.00468052227586       -5.10332744308968
H            2.43159031099108       -3.52475958360473       -4.38348478174516
H            1.00110698848009       -7.38356484517081       -3.08686333019646
H            2.18982961763336       -7.25333452987773       -4.37754493754813
H            2.66024049991245       -6.90731151795975       -2.71681441753245
H           -1.41797337958889        1.15531889129500        0.05995912709700
H           -1.67917707252824        1.17320953629419       -1.67649047161331
H           -1.53014569416847       -0.36536183007064       -0.81134562192284
