31
 energy: -36.053554775949 gnorm: 0.000500041160 xtb: 6.7.1 (edcfbbe)
C           -0.85209949721272        0.33788974278263        0.09745161802887
C           -0.31344823491203       -0.18380076818657        1.42709854730316
C            1.23210246235006       -0.03818960430938        1.50987272772571
C            1.66296776953737        1.37922772632450        1.32838181620566
O            1.48970059887236        2.26196595190417        2.12600140355956
C            2.35683966586812        1.63245673072720       -0.02534856116759
N            2.74234915720474        3.04042986575837       -0.31149877856494
C            3.71478139948153        3.51990044363504        0.69086912913438
C            3.36160388116523        3.09724359407840       -1.64958852862960
C            1.55032927016355        3.91151781973927       -0.29639052222975
C           -1.00057028720150        0.50037026638728        2.60159455824189
H           -0.76952690408747        1.42249104814273        0.04122934659998
H           -1.90418664519044        0.08274517946408        0.00592937398642
H           -0.32981955050833       -0.11225388991374       -0.74548698162963
H           -0.51544142947314       -1.25738032205283        1.48261205724388
H            1.53260689898886       -0.36038978988169        2.50829613207817
H            1.69445673479169       -0.68770070123926        0.76705785671141
H            3.25576812957030        1.01062274393806       -0.05314331815750
H            1.68112812535648        1.28357037120164       -0.81052233517451
H            4.60312186038191        2.89080496722867        0.68435809744835
H            4.00759138864281        4.54280829226342        0.46338033295730
H            3.26742000274138        3.49539170370977        1.68317903412476
H            2.65415772889966        2.77160240894596       -2.41065147556058
H            3.66763132566769        4.11742839154288       -1.87547736135899
H            4.24040069243844        2.45559825734883       -1.69024007102083
H            0.81890456721404        3.56108004219407       -1.02276052564406
H            1.10186050491319        3.90884101876437        0.69570975143320
H            1.83339416794887        4.93136051567864       -0.54888110841086
H           -2.07672504436915        0.37203836711633        2.52545042960497
H           -0.67264345389892        0.06930948855674        3.54365308695813
H           -0.78495528534071        1.56578013817973        2.62012426819410
