22
 energy: -27.105855978634 gnorm: 0.000650186821 xtb: 6.7.1 (edcfbbe)
C            1.01182793791287        0.03458956779647       -0.07882108311872
C            0.47836283677447       -0.38591072766279       -1.44465106585064
N            0.92292262393178       -1.72100853835110       -1.78759557220243
C            0.30765161764500       -2.84837672920482       -1.43101300370768
N            1.00809087455076       -3.89106879366025       -1.86305823555127
C            2.10652337787869       -3.41581808235413       -2.51194810812112
C            2.06624260226088       -2.04881814401369       -2.46904962706848
C            3.00738717417543       -1.05548552382587       -3.03004987920028
C            0.66491337655451       -5.27706078448872       -1.68044093197434
H            0.65393218616073       -0.63464085213551        0.69949773333253
H            0.66666569763240        1.03853238076461        0.14791968782614
H            2.09846421176384        0.03538886843528       -0.06445553876557
H           -0.61340773230575       -0.37979799247200       -1.43840533880228
H            0.82795934075453        0.30165796015497       -2.21589677294091
H           -0.61433924681434       -2.90273666961276       -0.88584483825672
H            2.83663255881275       -4.05987863656035       -2.95688683897928
H            2.51161766563924       -0.42352621062972       -3.76614711431749
H            3.41206240636996       -0.41254027461256       -2.25037633250045
H            3.83089584452317       -1.56789411928175       -3.51778162604710
H            0.62638699689968       -5.52244795645820       -0.61870519962005
H           -0.30872775654358       -5.48854177826225       -2.12301082942242
H            1.41484540542303       -5.90109696356485       -2.16042948471144
