38
 energy: -46.467473644344 gnorm: 0.000648739956 xtb: 6.7.1 (edcfbbe)
C            0.81303538206107        0.29533752226923        0.01288483838898
C            1.02370064254400       -0.54691168617706       -1.23998654043891
C            0.88084932910485       -2.04942808271824       -0.98423689696819
C           -0.49632441428773       -2.49470268179424       -0.48216108703991
C           -1.72734453223673       -2.14729859845860       -1.32123831196475
N           -1.90264639986385       -2.83853676003275       -2.64563007307477
C           -1.49038571386834       -4.25919403077774       -2.59150391287218
C           -2.13052011745061       -5.06964532369413       -1.44514936100452
O           -3.12033778386744       -4.73129706009524       -0.85501311954654
O           -1.43991500185759       -6.16849228417926       -1.26387400132830
C           -1.89420768762995       -7.09736431937372       -0.25531019638747
C           -1.40751834997989       -6.69112629613439        1.12531649832748
C           -3.33230518156202       -2.75174231939667       -3.01958857360360
C           -1.12074038963361       -2.16378056763182       -3.70007003872584
H           -0.21605545805156        0.25086131563422        0.36118416027386
H            1.04977424033353        1.33464606995658       -0.19622170891306
H            1.46430977773972       -0.04449891705441        0.81378953165269
H            0.33479186571876       -0.21338239141354       -2.01915691358277
H            2.03434628289626       -0.37032772536310       -1.61169910247129
H            1.17182903474842       -2.60425324932761       -1.88013806206953
H            1.59955302500869       -2.32569603680394       -0.21035208098934
H           -0.47023586133686       -3.56570134277767       -0.27650476525780
H           -0.66804461145813       -2.00678084899282        0.47924561298571
H           -2.60103290502024       -2.40566370483815       -0.72025457728132
H           -1.74848548831848       -1.07444264884988       -1.51480430242482
H           -1.77778580178262       -4.74907100496811       -3.52652371268481
H           -0.40610252822362       -4.33349000937877       -2.49580257592562
H           -2.98651319855551       -7.13856709704469       -0.28441409489762
H           -1.47164955935295       -8.05538410548925       -0.56025864177822
H           -1.85219835335818       -5.74519484713294        1.42600762600110
H           -1.70054899843142       -7.45223872479287        1.84136793923404
H           -0.32443098397296       -6.60029313697478        1.13661900638061
H           -3.65582438259422       -1.71276748858248       -3.00421620441576
H           -3.48176773279020       -3.15071288178936       -4.02138106669812
H           -3.93629798885387       -3.32106102725812       -2.31498919996871
H           -1.47679760525517       -1.14336218817031       -3.82758996824137
H           -0.06624940354057       -2.13705714727199       -3.44231878051215
H           -1.23729314699288       -2.68894837313494       -4.64657734217939
