51
 energy: -57.417733531229 gnorm: 0.000312896118 xtb: 6.7.1 (edcfbbe)
C            1.12944729654913       -0.10263429604627        0.40146683517135
C            0.94201205483293        1.38853371123509        0.65498279289162
C            1.32348446801640        2.25846841609145       -0.54382562058965
C            0.50831980567369        2.00286077711317       -1.81314619151115
C           -1.00009035103511        2.21132795753858       -1.66685435851892
C           -1.42122551481019        3.62046412059468       -1.24466719929235
C           -0.96810487993806        4.74045832657126       -2.18380715697939
C           -1.42396265756726        4.58924198778817       -3.63646526888501
C           -2.93782693382750        4.47782795141371       -3.83140236945114
C           -3.74816945025038        5.66045491191407       -3.29410536463686
C           -3.39883389718482        7.01581612330407       -3.90788935517538
C           -3.71808553159334        7.12501862691407       -5.40629203898485
N           -5.14972645922431        7.05041516240681       -5.62985998472358
C           -5.73456524309358        5.87370035516275       -5.88938394105781
C           -7.09847007456604        5.76474343953941       -6.02038917798522
C           -7.91405934831562        6.89261506455171       -5.88129634967655
C           -7.26979444606528        8.10448632246684       -5.61275462234595
C           -5.90159742266931        8.14988818827485       -5.49024166598443
C           -9.38559781327592        6.79586383176657       -6.00361444261724
H            0.43894326151634       -0.46378587207649       -0.35663146414218
H            0.94975325018789       -0.66445775264197        1.31503882680581
H            2.14475735584026       -0.30727405157776        0.06897307950129
H           -0.09321200069327        1.58200344421433        0.94275117389285
H            1.57175222622856        1.68328592348766        1.49783502278622
H            1.23135578993300        3.30847389063200       -0.25733351075037
H            2.37547154574943        2.08017618371040       -0.78021424505476
H            0.89083476710005        2.65486835378033       -2.60179230313592
H            0.67693648858499        0.97597683322297       -2.14218373523283
H           -1.47404711541467        1.95879199833765       -2.61869528855558
H           -1.38646474559415        1.50906160314121       -0.92630779209731
H           -2.51022370142646        3.63945692134611       -1.15149403897726
H           -1.01645479268051        3.83041464885661       -0.25348378582205
H           -1.32585649704722        5.69219002112889       -1.78284233517138
H            0.12172033611859        4.78692775618351       -2.18060157120957
H           -1.03832917301934        5.43559733937861       -4.21075794881507
H           -0.96927693691261        3.69157506344972       -4.05741165302603
H           -3.13125317163860        4.33623731074210       -4.89873264064095
H           -3.29255967099223        3.57845816308608       -3.32728647047552
H           -4.81444656577764        5.45426653083813       -3.43466747963886
H           -3.58286731625044        5.73321941959996       -2.21935816936116
H           -3.93833051173861        7.80072931453765       -3.37291797309658
H           -2.33365610925232        7.20576823341833       -3.78433105782513
H           -3.35168808795011        8.07927332801712       -5.78938802241026
H           -3.22766635457751        6.31819458634866       -5.95116818733590
H           -5.09001696304721        5.01495023727275       -6.00125112174268
H           -7.53418335509611        4.80104469742741       -6.23237502152420
H           -7.84079526655787        9.01245823338103       -5.50013258703441
H           -5.38536994705890        9.07537642441071       -5.28190236831930
H           -9.66187813333656        6.19616302617285       -6.86885269430834
H           -9.79218705539418        6.29130513310710       -5.12597296218284
H           -9.84721515145581        7.77580207846610       -6.07907619474152
