22
 energy: -40.900663162511 gnorm: 0.000628013375 xtb: 6.7.1 (edcfbbe)
O            1.18131509723071       -0.21395221422757        0.60753164799300
N            0.42467639206873        0.72560204322226        1.22646320912231
C            0.73240520419612        2.04725564560226        1.31681183988501
C           -0.27604011577262        2.63409125236729        2.02878213748139
N           -1.15822070434095        1.64187349210057        2.35851051994837
C           -0.73322453660623        0.45784946549233        1.86578064323963
C           -1.38377871715897       -0.82337951022665        2.00310041021826
C           -2.77407499282790       -0.89668125861595        2.16671962349982
C           -3.38764086714356       -2.12650532503033        2.29401066430419
C           -2.63562109180111       -3.29188628307451        2.27161122624655
C           -1.25891650821915       -3.22551411311374        2.11578112686613
C           -0.62946055915364       -2.00490152293891        1.97725414698291
O           -2.29688290504396        1.80724915673394        3.06760483198812
Br          -0.54842670891844        4.40561321823850        2.57104350829236
H            1.65592459964984        0.17640619333686       -0.14758416662815
H            1.61175693948731        2.48396323470250        0.88694267925731
H           -3.37000628827767        0.00050368431613        2.17385873210079
H           -4.45845137617583       -2.17591418512301        2.41112129920680
H           -3.12109145897641       -4.24943593282650        2.37647114118861
H           -0.67155129380246       -4.12979550539948        2.10420238249183
H            0.44192785165886       -1.96563804114747        1.87250210375340
H           -2.24854796007272        2.64211650561131        3.57268029256132
