116
 energy: -121.604536043989 gnorm: 0.000197705277 xtb: 6.7.1 (edcfbbe)
C            2.61805224011718       -0.39343421132560        1.49328509300764
C            2.55820607070294        0.78056008571499        2.46328645044803
C            2.35016781760795        2.12730786139814        1.76881160235748
C            1.03997359596784        2.25560848154567        0.98905262675260
C           -0.22906903427492        2.06812991017922        1.82265267343176
C           -0.39368792439135        3.05557970048190        2.97979307304156
C           -0.42302842264642        4.53032799867616        2.57229176519130
C           -1.50649247867141        4.89698079651212        1.55594338398289
C           -2.93480030362380        4.58036517985685        2.00348062105222
C           -3.39480415929810        5.30812322467637        3.26884305846048
C           -3.30650177810038        6.84048968715876        3.21941054838847
C           -3.91742963434101        7.53336189040175        1.99719699757964
N           -5.36998652218377        7.88636403234977        2.04304982232848
C           -5.61144403369451        9.02786379307766        2.98580204733597
C           -5.09079896821365       10.41802483350775        2.60389003583291
C           -6.01124853561981       11.30572356138842        1.75287996490449
C           -7.45053548545055       11.43740210119409        2.25588196565886
C           -7.59100756899192       11.95653736351240        3.68819586312949
C           -7.00807848654490       13.35160846974474        3.92335160832007
C           -7.59728641002965       14.45482445442490        3.04168886493105
C           -9.11496070446503       14.62146551017118        3.14165541759812
C           -9.64041943993099       14.92990343008409        4.54497269070091
C           -9.08190981243335       16.20557012328551        5.17890332855779
C           -9.35239925987861       17.48902914367377        4.39221978939126
C          -10.83655600312598       17.80154985286778        4.24272281854819
C           -5.80973770400355        8.27520193579885        0.66855977002935
C           -5.92208027085242        7.15123540514963       -0.37029967518439
C           -7.34563112632177        6.63695467522996       -0.61790900693366
C           -8.34110249351359        7.69623507702353       -1.09891945383087
C           -7.91529703239984        8.46755701299649       -2.34965275309005
C           -7.62517883325496        7.59831403117433       -3.57490704964430
C           -8.79307475145464        6.72434945584658       -4.03624499074349
C          -10.06815924745532        7.48826857166622       -4.39800160704297
C           -9.90435065523959        8.53179089730094       -5.50477533105183
C           -9.38034818556354        7.98757187297240       -6.83547914137768
C          -10.23840920411643        6.89052224129701       -7.46744562673031
C          -11.64791577022289        7.35448253453841       -7.81449199712052
C           -6.18236840105586        6.75670341328115        2.52585269238940
H            1.66021236559240       -0.54966521630704        1.00351388559944
H            2.87728176262570       -1.30640565728804        2.02399145699324
H            3.37171296740192       -0.21715491887219        0.72894782725693
H            1.76467270789560        0.61013240385108        3.19318971083741
H            3.49983827409250        0.82856505142678        3.01528400841945
H            2.40647329263019        2.91999822195140        2.51808206427333
H            3.17408627861509        2.28675573114797        1.06872018684865
H            1.02056965307556        3.23883146141581        0.51297505165549
H            1.03036369622717        1.51539492735823        0.18711349058647
H           -1.09140539353660        2.14071372818244        1.15527452799040
H           -0.23677650658357        1.05905156205924        2.23771864177956
H           -1.31256663310361        2.80641079478368        3.51631934209419
H            0.42852644966849        2.91886364683228        3.68364440004004
H           -0.54655950785350        5.13370362650832        3.47507373907524
H            0.54278355484375        4.79924866137095        2.14218234950579
H           -1.41599211462656        5.96151843065407        1.32357468366231
H           -1.31790874551476        4.35369196639110        0.62908097912711
H           -3.61633501345030        4.79228154645237        1.17353169706522
H           -3.01341700108128        3.51004665488336        2.19444271270481
H           -4.40742293126566        4.97864642622901        3.50476022019288
H           -2.76520668953079        4.98550887076599        4.09852104268884
H           -3.71387530954566        7.24607531565053        4.14682197805049
H           -2.24771046071981        7.10383815371379        3.21174856551439
H           -3.38112059395252        8.46754497037391        1.82460968701409
H           -3.75744411209165        6.90006904299358        1.12608835372010
H           -6.68818660409013        9.09429157608007        3.14477691547582
H           -5.15484654228175        8.73981027133252        3.93395592606328
H           -4.92298072387121       10.93918201700158        3.54773903978459
H           -4.11740292398206       10.35418100517407        2.11520984107197
H           -5.56036457406028       12.29838849197059        1.73924070647084
H           -6.03934699811017       10.96677956770925        0.71648490832105
H           -7.97129079888483       12.11857225884347        1.58276472711558
H           -7.96987582599649       10.47661920564180        2.18027803992227
H           -8.65326726395257       11.97268465701600        3.93533704529266
H           -7.11364975773234       11.26179897359236        4.38455244164489
H           -7.17155664085505       13.60896494447778        4.97077468291245
H           -5.92651127198713       13.32898828948559        3.76813227945343
H           -7.11753323333063       15.39517471656482        3.31695236088290
H           -7.34060635728652       14.26380529598974        1.99675945947686
H           -9.41012066252140       15.42582987165507        2.46597432141210
H           -9.60620189316313       13.71318907311639        2.78387647063960
H          -10.72758280538879       15.00780625775455        4.48925651693613
H           -9.41653463826881       14.09201615145341        5.20949016845472
H           -9.52572836469389       16.30842676885137        6.17229646385949
H           -8.00357641837129       16.10065029986374        5.31741728372259
H           -8.87091577371808       18.31526424359061        4.92064025443844
H           -8.89207954424473       17.42564474428760        3.40451172080314
H          -11.32069575791207       17.82232998904388        5.21663407884026
H          -10.97041526122836       18.77370840538645        3.77424637568758
H          -11.33575939676822       17.05905202336034        3.62521727614668
H           -6.78353228614882        8.75453255131301        0.76715652532054
H           -5.09705812757352        9.01933193780932        0.31433481066758
H           -5.54011651548762        7.53770246182229       -1.31523039302744
H           -5.28841713597380        6.30252406942649       -0.11064693938331
H           -7.27826235528832        5.85636473368409       -1.37594118460907
H           -7.74880248886357        6.16893360528312        0.28211661491807
H           -9.28599915011606        7.19093728095598       -1.29957404815352
H           -8.54127697422484        8.41934658955253       -0.30254237474354
H           -8.71305632303514        9.16924789380529       -2.59554040031263
H           -7.02713564707413        9.06610142951842       -2.12889552696244
H           -7.33212071097250        8.25907842168777       -4.39195416049485
H           -6.77051597359956        6.94805616565868       -3.37178757789855
H           -8.46181979555973        6.15402820713058       -4.90542909822608
H           -9.03721763818122        5.99909537146925       -3.25616891156048
H          -10.82096038730706        6.75980378093688       -4.70352770095330
H          -10.45728994191290        7.99036825666466       -3.50888030363376
H          -10.87467939889247        9.00275134475074       -5.67099935480007
H           -9.22510075588466        9.31763264032460       -5.16584857643729
H           -9.31465507360100        8.82314247525268       -7.53684485406089
H           -8.36730130257603        7.60305956363871       -6.69746727312350
H           -9.74168558054299        6.56002941466253       -8.38283850406084
H          -10.29278870663842        6.02837705474339       -6.80018791701414
H          -11.61226238103907        8.24116244828432       -8.44365942663564
H          -12.17800511644328        6.57363978913276       -8.35466242653220
H          -12.21711699703260        7.58991566532555       -6.91875308188738
H           -5.95235182039628        5.85656042405407        1.96332485263211
H           -5.98609225113819        6.57635828791992        3.57986824890116
H           -7.23905020061821        6.98946923949258        2.40630113586004
