22
 energy: -30.268236468837 gnorm: 0.000312051290 xtb: 6.7.1 (edcfbbe)
C            1.06285361089887       -0.07487324465401        0.07371546110308
N           -0.07340898892021       -0.05424358076741        0.14368169616097
C            2.51872761758732       -0.07503180533582        0.02351776078411
N            3.05611962083561        0.42151019399586        1.28274385811189
C            2.84044722686908        1.70444933782330        1.61891076195856
C            3.28117443040620        2.20718845872583        2.81735087807969
C            3.96446164851188        1.38399247856728        3.72133988943843
C            4.17404667570905        0.05636343887479        3.33278450815159
C            3.70848762643766       -0.39545404771574        2.12136342009130
C            4.49420569451031        1.91318948768438        5.00177343546797
C            5.90105288826181        2.48927420326075        4.76916966299153
H            2.86735153939625       -1.09445590500295       -0.16628033519992
H            2.83879613497795        0.56727221419077       -0.80550598278932
H            2.29974160298117        2.31653548520525        0.91134929518437
H            3.08967012556185        3.24095080255745        3.05946046407056
H            4.69623397144244       -0.62609160178774        3.98510238892770
H            3.85270512218055       -1.42017681144904        1.81132069543302
H            3.84673807690965        2.70509406307835        5.37918575430961
H            4.55537221102478        1.11785434004690        5.74475284334716
H            5.87350804765296        3.29607025077240        4.04130890076865
H            6.28565187108728        2.88165644019810        5.70519359414101
H            6.57948324567738        1.71818580173092        4.41288104946817
