21
 energy: -25.788444304832 gnorm: 0.000812391316 xtb: 6.7.1 (edcfbbe)
C            0.93663515286435        0.06264322554755       -0.05552294956729
C            0.46918418478066       -1.33291732240616        0.10435395444551
C           -0.83784061964561       -1.60647388723062        0.52094010546861
C           -1.27705076613489       -2.90658358506624        0.65415685426427
C           -2.64298063776396       -3.28410648094784        1.09230707773931
N           -0.41442373813685       -3.90499047420270        0.37283240591949
C            0.85619389860085       -3.71139059011459       -0.03478424399308
C            1.30881266217068       -2.41537655373188       -0.17264689323817
C            1.68092084053936       -4.91428589902579       -0.30447888605248
H            0.52430466390317        0.70506288681247        0.71905083742242
H            0.58807764886014        0.45118062508990       -1.01434676737806
H            2.02088349842358        0.12541819585068       -0.04414069637152
H           -1.51161398327503       -0.79406693085383        0.74224898780022
H           -3.13610604194289       -3.88933615633401        0.33159509817771
H           -2.60167252799224       -3.87440139476294        2.00788927415093
H           -3.24942328837221       -2.40345718607206        1.27834185358954
H           -0.74222636916684       -4.86252943030975        0.47651856303255
H            2.32244131075277       -2.24090211639814       -0.49655712576621
H            1.76540652809642       -5.52946734421511        0.59151892991113
H            1.22349782558513       -5.52584891119694       -1.08233904349609
H            2.67954975785337       -4.63748067043201       -0.62705733605878
