38
 energy: -45.056264608750 gnorm: 0.000429442731 xtb: 6.7.1 (edcfbbe)
C            1.33685370161482        0.07058737909667        0.62674740893464
C            0.30290254217885        1.06457525342726        1.14154648377194
C            0.67019266223653        2.52238857735177        0.85645803501025
C            0.82894585138788        2.87142796752345       -0.62629692767468
C           -0.40265078950411        2.59903148749680       -1.49056028974115
C           -1.61402175937852        3.47200133709971       -1.14085947835853
N           -1.35786752537255        4.86707775646003       -1.44512304182334
C           -0.92623394092540        5.71990061832424       -0.49806561632850
C           -0.60718019565645        7.01533430344461       -0.77335018177129
C           -0.70971155084650        7.52410006246526       -2.09731469006251
C           -1.16560949435930        6.58847594685431       -3.06790652079599
C           -1.46812964901642        5.31007829018781       -2.71260930755406
N           -0.40622753045001        8.78164111021784       -2.40562035837228
C           -0.02887596033059        9.72747040770101       -1.37724451420983
C           -0.44425398809143        9.23997322342616       -3.77791839053714
H            1.38095691306879        0.06624460159210       -0.45949979486762
H            1.08254695679212       -0.93345028895286        0.95547328120573
H            2.32372777852837        0.31487961041490        1.01251752708995
H           -0.67482506297360        0.83027674801013        0.71521370691237
H            0.21515130485499        0.95023425010038        2.22377326724856
H           -0.08333304075431        3.16551022790868        1.31907678482598
H            1.61977226240265        2.74165715352484        1.34888365692067
H            1.11128710420566        3.92536869404929       -0.71174559552941
H            1.65599978093208        2.28960174643828       -1.03265751525267
H           -0.14199223384711        2.76102661088162       -2.53905008580522
H           -0.70003892199644        1.55699971402233       -1.38403511736687
H           -2.48053914498216        3.14403041785620       -1.71932998357868
H           -1.85075778898207        3.37868093131825       -0.08081510355147
H           -0.84614701735197        5.33285089516967        0.50595990116087
H           -0.26527731652551        7.63862595352733        0.03357924284757
H           -1.29268819228966        6.87707735059300       -4.09617901491217
H           -1.82073859597982        4.59885388773489       -3.44405560008375
H            0.02858868136033       10.72424620314387       -1.80450712283325
H           -0.77108827004137        9.74691738256356       -0.57780348971442
H            0.94694541324449        9.47917624926052       -0.95295158024515
H            0.14646950001882        8.58608635745902       -4.42126158622148
H           -1.46985520024449        9.27822158267150       -4.15243441792228
H           -0.02174728292462       10.23846999963868       -3.83854397081265
