25
 energy: -33.457808137210 gnorm: 0.000436677858 xtb: 6.7.1 (edcfbbe)
N            1.53257118115613       -1.27498517798898        1.47126367820536
C            2.35410575538988       -0.72762946160599        0.89848724474273
C            3.43523572170287       -0.13453509731643        0.14423098300542
C            4.62344946726711       -1.11225166027669        0.07607280052122
N            4.17998412048908       -2.41233944883971       -0.40246565849268
C            3.79416480418878       -3.34973441410461        0.47107795880623
C            3.28174521761022       -4.54872127117124        0.03290206521588
C            3.14875418992217       -4.81341945242367       -1.32931962389752
C            3.57015634631882       -3.81494747103408       -2.23424879760491
C            4.07140882746536       -2.63636400646831       -1.72081502289185
C            3.47520002833920       -4.01812667207153       -3.70475227759572
C            2.58616426500049       -6.09324894316465       -1.81237680446987
H            3.06768544844578        0.10864589363600       -0.85680623846233
H            3.75009020941822        0.79146747732358        0.63049886116944
H            5.38731836905019       -0.71664469641009       -0.59628864812006
H            5.05807167462070       -1.23400244835620        1.07045157567410
H            3.89496204039305       -3.13014534946663        1.52259477361387
H            2.97732220661024       -5.28383156953831        0.76068245823743
H            4.40097158573973       -1.84556250110022       -2.37925516726969
H            4.05242769115525       -4.89191191644413       -4.00383443857332
H            2.44169957766010       -4.20043780934821       -3.99590486076567
H            3.84380191465716       -3.15499369683656       -4.25038388979705
H            1.69757024194484       -5.91001795492192       -2.41673895964041
H            3.30175507799677       -6.60584001100740       -2.45518030625312
H            2.32093403745619       -6.74696234106528       -0.98730170535272
