70
 energy: -81.002285419879 gnorm: 0.000156337895 xtb: 6.7.1 (edcfbbe)
C            1.82704183410142       -0.60604616273445        0.38383448429382
C            1.87482771389259       -0.62844598807907       -1.13908159075300
C            1.74462148304685       -2.03475178154950       -1.72733300904646
C            0.43397741256723       -2.75459923125425       -1.40024379440548
C           -0.83395202183274       -2.01036753065718       -1.82224088633053
C           -0.92129095775418       -1.68189468685271       -3.31423859398955
C           -0.92048254550026       -2.89853970313065       -4.24413848429196
C           -2.07636944009034       -3.87825032800208       -4.03648512233931
C           -3.46381424377372       -3.26275842848099       -4.25447485575752
N           -3.64438228680663       -2.82992905145119       -5.62036427982041
C           -3.24535638425586       -1.66643414102052       -6.12281000539877
N           -3.48634080532092       -1.58742941498759       -7.42701638136469
C           -4.08891514122413       -2.76725519910183       -7.81117317949869
C           -4.17605295563488       -3.57004085059335       -6.65591378564261
C           -4.72692672906631       -4.84537502736756       -6.70438904877734
C           -5.18669452209431       -5.28206138354819       -7.92887681819605
C           -5.10601190167000       -4.48311014065651       -9.07368953195730
C           -4.55882224782620       -3.21786661682390       -9.03933330915283
C           -3.24192305727173       -0.43291859902760       -8.25936018538625
C           -4.40855721989399        0.56048093122956       -8.20116185095332
C           -4.63792948931354        1.17064885484467       -6.81769539551492
C           -3.46156663171271        1.97401564925120       -6.25587664505369
C           -3.03939802032169        3.17702070807423       -7.10214065081458
C           -4.12152748157198        4.24096218263238       -7.29366320863209
C           -4.67864197981105        4.83614016720760       -5.99818700577415
C           -3.63526016920615        5.47066010071050       -5.07658697416611
C           -2.89947508226336        6.64168514450420       -5.71639119552511
H            0.85200290233356       -0.91292573495449        0.75387331398238
H            2.02519030413767        0.39829972612027        0.75025035603389
H            2.57868479521894       -1.27429832077925        0.79717070695412
H            1.09141973382619        0.01984145560226       -1.53726511484557
H            2.83168256087423       -0.21535174949508       -1.46636898439974
H            1.86918311472957       -1.97469475284742       -2.81130604538511
H            2.56465262895489       -2.64639304233764       -1.34493896916395
H            0.45584880299706       -3.73965280477760       -1.87211079048631
H            0.38086553424506       -2.92117857364484       -0.32362904813301
H           -1.70062128344791       -2.60580095454323       -1.52519844287092
H           -0.89277635758847       -1.07128847576652       -1.27016175846114
H           -1.82218652303187       -1.08166139896212       -3.47363206837891
H           -0.07218494032882       -1.05364700060087       -3.58637844695299
H           -0.91819490082079       -2.55244580669842       -5.28306334327392
H            0.00929756625634       -3.44781041242851       -4.09760967176624
H           -1.95155167676862       -4.72221754077053       -4.71844668372324
H           -2.04588448687093       -4.26810519435271       -3.02001887666374
H           -4.23665219805344       -3.99908621814766       -4.02901759194003
H           -3.60091866719975       -2.40325003601891       -3.59627347468882
H           -2.78545577746724       -0.88642059740505       -5.54624390920548
H           -4.79110650835845       -5.46936781613954       -5.82824335107178
H           -5.62083415296555       -6.26571993075015       -8.00882328918935
H           -5.48270936209083       -4.86952247690143      -10.00708413508292
H           -4.50326329054206       -2.60841228279855       -9.92623413261812
H           -2.32164847436878        0.04845578979030       -7.92454189723554
H           -3.09932338272601       -0.77955835617248       -9.28399431408312
H           -4.20218986852795        1.35253132304378       -8.91960160489670
H           -5.32206558395930        0.05389873675182       -8.52022738662803
H           -5.50627558612149        1.82572923580456       -6.88460498228742
H           -4.89853641010626        0.37812687409467       -6.10834533743943
H           -3.74183933573449        2.32434912075767       -5.26165861823369
H           -2.58662625179659        1.32937359290407       -6.12857262790010
H           -2.17407549493183        3.63545768018675       -6.62131371384119
H           -2.70968382692745        2.83674446413270       -8.08674235002109
H           -3.69765768502076        5.04361150734184       -7.89843766414774
H           -4.95298063397574        3.82041663998233       -7.86402195965840
H           -5.40947447352433        5.60069068388344       -6.27047986491834
H           -5.21572410711051        4.06431611088413       -5.44146796702160
H           -4.15064757584521        5.82669371305145       -4.18162525012872
H           -2.91181491699147        4.71903790504834       -4.75376514615671
H           -3.60772573755497        7.38435279275992       -6.07583209296040
H           -2.24687942310243        7.11720538645976       -4.98823200195545
H           -2.28784617901827        6.31500726541640       -6.55363016499173
