17
 energy: -17.180459639838 gnorm: 0.000392185244 xtb: 6.7.1 (edcfbbe)
C            1.09733266013935        0.06469371034706       -0.25056683922322
C            0.49416114029373       -1.28761131823508       -0.58003728241095
N            0.89617368118981       -2.33202058265380        0.41209923833227
C            0.38435896032744       -2.14785898525943        1.80525027694471
C           -1.12511809787154       -2.28172220814102        1.87349550343369
H            0.67749102589477        0.49160701700079        0.65533994547918
H            0.88238942717209        0.75257638733119       -1.06339424327220
H            2.17831497409527        0.00138832885037       -0.14862888405348
H           -0.59407025609628       -1.23213359698064       -0.60133059960694
H            0.84126494816687       -1.61794529411181       -1.56093534436251
H            0.56669031269180       -3.24526889160397        0.07666859316368
H            1.92264965791298       -2.35583016879405        0.44166728096242
H            0.85169136762285       -2.91245196178573        2.42875675144851
H            0.70360831820835       -1.16950929359391        2.16398427640885
H           -1.45852724570723       -3.22346120157972        1.44350969976154
H           -1.43220420167511       -2.26777581682472        2.91540465724707
H           -1.63282667236515       -1.46163612396551        1.37461696974738
