49
 energy: -71.141455757024 gnorm: 0.000166055100 xtb: 6.7.1 (edcfbbe)
C            0.64737014175250       -0.48654020323289        0.73742083992021
C           -0.11079513430211        0.79898616273929        1.04983879033918
C            0.61669719139902        2.01820513981561        0.48477043766081
C            1.86131462572474        2.42494512282545        1.27182233284757
O            2.56252991101346        1.75633333868348        1.96128616349771
O            2.05311889100455        3.76324703198353        1.12031289484977
C            1.05420299862385        4.29834415282229        0.26610193429537
C           -0.14058258907951        3.35497360181224        0.43728086395703
C           -0.88489746574566        3.60032942460984        1.77084995859304
C           -1.22415856927246        5.02874646990133        1.99156166848573
C           -2.23410618000975        5.78546626301552        1.46499172361018
N           -2.10197987024524        7.05334464412966        1.94575512580412
C           -1.04328292813405        7.07670067829945        2.75043342048394
N           -0.49149322300523        5.86759785793395        2.79524754448567
C            0.64339503508755        5.50118880592178        3.60259883144050
C           -3.03752528779684        8.13724812937784        1.78000818004264
C           -4.03000747105883        8.17081090888430        2.96750332945098
O           -3.34613682999551        8.29626484023607        4.18341237431014
C           -2.96460178257477        7.19016488673517        4.91124316787585
C           -3.28470952207176        5.86972554587475        4.62401202359584
C           -2.80458906715378        4.85476965550979        5.43879992236791
C           -2.01003993705941        5.13943369158615        6.53303428147536
C           -1.70370193326318        6.45969146379847        6.82820085988422
C           -2.17335592027731        7.47738261437816        6.02394212276482
H            0.72945739876179       -0.63547746499887       -0.33664641708616
H            0.12548466051163       -1.33949184450606        1.16158838879639
H            1.64555913575596       -0.44623195363430        1.16295015081718
H           -1.10884814117572        0.75023078412688        0.60823167994512
H           -0.21661385891944        0.89085116500224        2.13158293658827
H            0.95585171441183        1.77606560850006       -0.53023815659086
H            1.41374622682537        4.28201357101951       -0.76918259511121
H            0.87687637008853        5.33545507484844        0.55291666810805
H           -0.83365607733956        3.42918682981882       -0.40010618550214
H           -1.80167021502593        3.01024419534514        1.76579869360380
H           -0.26175790124028        3.25108761722713        2.59434691984399
H           -3.01907283752885        5.50550493764558        0.79258463876927
H           -0.69231807748864        7.93978049780856        3.28193560915177
H            1.07132982472832        6.39579849106575        4.04809075760734
H            0.32643492414058        4.83171681643349        4.40409613139659
H            1.40601106983724        5.00230172855824        3.00216521173071
H           -2.48328700653156        9.07762209728363        1.75780387728645
H           -3.58158935468467        8.01071051339658        0.84386673223196
H           -4.64534148386698        9.06905749138467        2.86939943716555
H           -4.68648744205525        7.29639437258150        2.94778124412939
H           -3.91727172859473        5.60444083779878        3.79009487426658
H           -3.06847988102985        3.83295643897433        5.21125490962840
H           -1.64625623366400        4.34284356493330        7.16218297674149
H           -1.10120507267146        6.69683849618880        7.69075518140813
H           -1.95669109685735        8.51061990541611        6.24310754306358
