34
 energy: -39.190141126399 gnorm: 0.000900745261 xtb: 6.7.1 (edcfbbe)
C           -0.45307305785921        2.81658988570789        0.14160409830253
C            0.33639722772387        1.94699045143713       -0.45770157611168
O            0.20387917407855        0.58323334642432       -0.51690951741861
C           -0.93383208740735        0.01591381188453        0.08895017422683
C           -1.00517836150646       -1.48392943463061       -0.21717403475101
N            0.23335813218669       -2.27141167992587        0.04504469200867
C            0.84716460257670       -1.89449112535938        1.36131858281338
C            0.00368703653159       -2.16459528181273        2.59910538310521
C           -0.11789201068241       -3.72679381119990        0.11018688518866
C           -0.59572240107571       -4.37875470552303       -1.17693035238293
C            1.29988700143792       -2.03397807351315       -0.99586543765070
C            0.85355783018318       -1.73709049276336       -2.42014013856715
H           -1.34528101450230        2.55195546334154        0.67996897787186
H           -0.21445604919881        3.86158110924699        0.09933335508477
H            1.22933369909774        2.23352208570956       -0.99309699760660
H           -0.92129147521724        0.20778155562794        1.16997100881810
H           -1.84765675874524        0.47138337830432       -0.31719952864333
H           -1.81313392558647       -1.90106188828282        0.38585692145035
H           -1.26034630665638       -1.61547168299321       -1.26692754314023
H            1.78626349869369       -2.44576207188455        1.44782046563801
H            1.08947801391230       -0.83279611502743        1.31059573255980
H           -0.09845090348399       -3.22494158308776        2.81024766733040
H            0.51434001443058       -1.71681990159864        3.44842254147301
H           -0.98441689715369       -1.71788342811388        2.54046926151872
H            0.77091811610594       -4.25556540859893        0.46170843146100
H           -0.89881354306567       -3.83852043711732        0.86295058936703
H            0.18972521186176       -4.44414433458476       -1.92293431084744
H           -0.89499233498494       -5.39623759133948       -0.93510501412077
H           -1.46202777652647       -3.87863176429936       -1.59945179036004
H            1.88704803102180       -1.17598244038474       -0.66858307148491
H            1.94336436273204       -2.91524817431082       -0.98559244118676
H            0.39289499450858       -0.75679275799504       -2.48997087221313
H            1.75141078589846       -1.71395098352648       -3.03345673121168
H            0.19033717065991       -2.48429591980541       -2.84100541052138
