45
 energy: -64.395069112617 gnorm: 0.000691434727 xtb: 6.7.1 (edcfbbe)
C            1.87960042586094       -0.48245636205802        0.01428858113642
C            1.13426410299395       -1.22510800241213        1.11667590686917
C            1.25643730194756       -0.54120098038555        2.48104726021428
C            0.37991223957141        0.70971936441725        2.61072255709920
N           -1.03050289751259        0.38002811529380        2.63707429781113
C           -1.69155019252510       -0.12555692728906        3.69401862900687
N           -1.18875710995515       -0.30240598480542        4.91208020000255
N           -2.97843044331290       -0.37019687258971        3.36352367297413
C           -3.15901287082637       -0.00414101247048        2.03402390637584
C           -1.91914520216054        0.46399683724019        1.57174397024786
C           -1.76200216880959        0.91159837423669        0.27100810324242
C           -2.87492537457175        0.87827740491262       -0.54971818282813
C           -4.10653171046127        0.42405611253491       -0.08804799400258
C           -4.27217871671949       -0.02256454744194        1.21108075724363
C           -4.00250541472888       -0.84938030388005        4.26725502948042
C           -3.64842425239253       -2.23937963108042        4.83666194882636
O           -2.81764533285787       -2.29984042848525        5.72532969853533
C           -4.32280143327410       -3.41380054557540        4.29709250796494
C           -4.86919714284532       -3.45316747074337        3.00957764035322
C           -5.46947679316283       -4.60879307653727        2.55134439458625
C           -5.55073690953368       -5.72821603891213        3.36802667539167
C           -5.00482318119194       -5.70200490144513        4.64313668004923
C           -4.38370718286823       -4.55870292450028        5.10206910235138
H            1.51952836527710        0.53624697551351       -0.10464076882671
H            1.75197885921601       -0.99685632397278       -0.93395930728272
H            2.94239871481512       -0.44168920586098        0.23782833366109
H            0.08019208053360       -1.33097461880889        0.84819372041480
H            1.55077048392474       -2.23000773002928        1.19842101287840
H            0.98652867892332       -1.25298380714230        3.26486176252928
H            2.29438896776905       -0.24760590010373        2.64191157456822
H            0.62814563026901        1.25994483641348        3.52294755126944
H            0.54578575589098        1.37636980256163        1.76511158111222
H           -0.20774950660756       -0.15432494078882        5.07376511748365
H           -1.69769437313601       -0.90020278385950        5.56933686417805
H           -0.81631067536187        1.27089025152188       -0.09807823748962
H           -2.78701691579697        1.21759222332970       -1.56907791337710
H           -4.95279691224428        0.42358626696117       -0.75580038866400
H           -5.23814231641027       -0.35416224885878        1.55660009836272
H           -4.08222593534044       -0.16222736178712        5.11870229264490
H           -4.95341179336730       -0.86341411091514        3.73922004674174
H           -4.78578834178530       -2.60449740102199        2.34815209745387
H           -5.87860537085931       -4.63958423706869        1.55350767860151
H           -6.03480373429284       -6.62203230639300        3.00640935058351
H           -5.06036944059093       -6.57481359711120        5.27447197928905
H           -3.95143196151297       -4.51898398060349        6.09022021093888
