21
 energy: -32.873858395770 gnorm: 0.000553555094 xtb: 6.7.1 (edcfbbe)
C            0.67203493114901       -0.36751762069088       -0.15561715245846
O            0.19335052467299       -1.01626028934998        1.02535513674629
C            1.07683415675125       -1.69205886529880        1.73004955340992
O            2.24601227686703       -1.81854036629299        1.48662307459324
C            0.45161550562599       -2.32539092465278        2.95377204035178
C           -0.90027796789636       -2.22313607764443        3.27451555400206
C           -1.35187039647448       -2.84941388977643        4.42827396394844
C           -0.46074746046303       -3.54813029270364        5.21978120040396
N            0.83413424107467       -3.63492005631171        4.89482413081656
C            1.29095387326027       -3.04247352971027        3.78936290820950
C            1.76177825345178       -4.36657786958143        5.72765773948714
H           -0.10577534154944        0.32943511447110       -0.45500661902660
H            0.84511036215149       -1.10571820580215       -0.93991262952497
H            1.60609623444764        0.15567840985028        0.05313080516925
H           -1.56904443310989       -1.66799694482950        2.63518079211012
H           -2.39003943706235       -2.79732709636642        4.71609219827201
H           -0.78330146955622       -4.04438170273038        6.12356247260884
H            2.34267718121759       -3.12762080611148        3.54584593634081
H            2.21748031267755       -5.17780656816922        5.15823135314906
H            2.55833688711754       -3.70529964749639        6.07147178081921
H            1.25405176564689       -4.78588277080272        6.59317576057163
