17
 energy: -29.227773389964 gnorm: 0.000942067954 xtb: 6.7.1 (edcfbbe)
N            1.40599664587742       -0.16987004679848        0.52669064977159
N            2.34772070440857       -0.03378234758044       -0.04558009086800
N            3.40307012426227       -0.10819091775693       -0.62127989869963
C            4.08411443914808        0.83199149645714       -1.28145435643166
N            3.77594473590508        2.09618278631462       -1.46869411073635
N            4.77389923886145        2.61443130199818       -2.18018319399212
C            5.68918059808910        1.69659123948734       -2.43491481017233
N            5.28997762319620        0.54437231307377       -1.87713559662134
C            5.94677594110212       -0.73446952179670       -1.89845731818250
C            4.74359390210175        3.99234647075921       -2.57705042839880
H            6.59667922824154        1.84371974491377       -2.98691379466694
H            5.55876332297835       -1.34415805192886       -2.71654704986703
H            7.01753882209372       -0.59708419804954       -2.03139542923482
H            5.75489198710998       -1.25087048858357       -0.95900143452157
H            5.74406757297379        4.41878132294006       -2.54101782113766
H            4.34813167857208        4.08635440115744       -3.59008390294674
H            4.08312343507848        4.52602449539302       -1.89571141329406
