59
 energy: -61.491880069578 gnorm: 0.000233359093 xtb: 6.7.1 (edcfbbe)
C            1.90561325106682       -0.36990763056706       -0.61076454630299
C            1.39642205679302       -1.80631647622103       -0.62166292896166
C            1.69258664229431       -2.56266927023074        0.67444528552189
C            1.06609587817694       -1.95790152792028        1.93272848190746
C           -0.45712377417572       -1.82339350142694        1.89476714987795
C           -1.21703642825417       -3.14137350597839        1.73316997406247
C           -0.98256148345887       -4.16308573136583        2.84825973832345
C           -1.29425696786019       -3.66088973273270        4.25992870637825
C           -2.71829103767489       -3.13809120005846        4.46082319281821
C           -3.82276278414245       -4.17448190657484        4.23935254019430
C           -3.83832623877021       -5.30989043918846        5.27035011671428
C           -4.19739217732404       -4.85638260285060        6.69322001227262
N           -5.57005573670799       -5.19086408049392        7.17596930102702
C           -5.82611269710248       -6.67116313482859        7.12430140668478
C           -4.70493032778094       -7.55891660012166        7.64258072415407
C           -5.73750136791045       -4.76524991194724        8.61003130089928
C           -4.98886874876996       -3.52486939499837        9.08041571100224
C           -6.61649310736923       -4.56100769571760        6.30975262278504
C           -6.73450163755770       -3.04647949423268        6.36717723630821
H            1.37619749294586        0.23049797321679        0.12478127500391
H            1.75985804028516        0.08768205231204       -1.58642511836690
H            2.96754278430505       -0.34456987090040       -0.37678051354752
H            0.32283001493362       -1.81070949802368       -0.81908721746925
H            1.87731779135972       -2.34354337753204       -1.44247652667549
H            1.35660557895595       -3.59576970633815        0.56099914577584
H            2.77529172209122       -2.59046995319386        0.81978592569578
H            1.35617553115669       -2.57200791478550        2.78838858464115
H            1.48933517199764       -0.96545358064601        2.09725170501424
H           -0.78020495085132       -1.32607041639179        2.81247874414601
H           -0.73617726008637       -1.16941470536610        1.06710512608597
H           -2.28447920819442       -2.91714604057699        1.66317259725792
H           -0.92988469746625       -3.60401942604010        0.78779111540908
H           -1.58120238569282       -5.05175851124997        2.63244421339401
H            0.06220022617368       -4.47640007278485        2.82950026130973
H           -1.09236458376344       -4.46912683626511        4.96762014593408
H           -0.60609057335089       -2.85116891090731        4.50494357975345
H           -2.78821473308212       -2.72176630987916        5.46992769184750
H           -2.88921212010544       -2.31405326099403        3.76818458586806
H           -4.78602243913148       -3.66064986503679        4.22787264113003
H           -3.68789778943721       -4.61880970463506        3.25347790896501
H           -4.51029703447166       -6.09216207945117        4.91947479837266
H           -2.84119426831021       -5.74970366349877        5.29541627521142
H           -3.50185395619201       -5.29241918173999        7.40932900640306
H           -4.09201829375434       -3.77440691617398        6.74513545595847
H           -6.73378145554624       -6.85482960658729        7.70360863807048
H           -6.03655299643768       -6.94657052768733        6.09024077246265
H           -4.39304925359325       -7.30450615988305        8.65199765936527
H           -5.07697924858492       -8.58027796792754        7.66710890413645
H           -3.83755298462636       -7.54282505815620        6.98995089900778
H           -6.80790998086417       -4.62847255183132        8.77433187899376
H           -5.40918751302678       -5.59511522063013        9.23669396748928
H           -5.20251382032847       -2.64003849457296        8.49175650846714
H           -5.31208817426537       -3.32427718072187       10.09958765386281
H           -3.91449119789153       -3.68065445703243        9.10875618354751
H           -6.40479985721813       -4.86091552274158        5.28279078309547
H           -7.57759338279330       -4.99490158243801        6.59589531874953
H           -5.80378997579405       -2.54502088153642        6.11864688812555
H           -7.47122137985600       -2.74867503499502        5.62436276968512
H           -7.08981215265686       -2.69635613918376        7.33122374214151
