41
 energy: -48.947587650486 gnorm: 0.000958733733 xtb: 6.7.1 (edcfbbe)
C            1.37562838089674       -0.57831017806347       -0.64083256875804
C            0.41716399015499       -1.31688819831255       -0.10932959951499
C           -1.05244050665668       -0.97287534653548       -0.01912829045582
N           -1.78375903578753       -1.64244801329428       -1.22313944737119
C           -1.34879162463059       -3.06862046161154       -1.47988449840333
C           -1.67309499605305       -4.12977954872872       -0.45646968318702
C           -2.95193569811333       -4.67636350462096       -0.37342773347741
C           -3.23149565562710       -5.68196618552087        0.53560311426744
C           -2.23346902409681       -6.17683769762033        1.35750680297378
C           -0.94562543153240       -5.68127933586711        1.24414099784132
C           -0.66709638672188       -4.67144324450200        0.34038219530619
C           -3.24648247490023       -1.60472661461831       -1.05714802542997
C           -1.45322879341038       -0.90182174144914       -2.45962600278356
C           -1.60390261506597       -1.50433908315256        1.31910939462711
C           -0.80197437868824       -0.98637053013257        2.48295999944161
C           -1.33156820960223       -0.33875020224460        3.50333953922508
C           -1.26968345353088        0.54055567977001       -0.02395578988569
H            1.21585210885508        0.38385771953073       -1.09633135193669
H            2.39834157773546       -0.91351601813742       -0.62219888638182
H            0.68235201726370       -2.25317248447462        0.35863306109451
H           -1.83410877327510       -3.36069269851426       -2.41514187881724
H           -0.27144847869737       -3.04673665392834       -1.65072106778664
H           -3.73486703924636       -4.34384534048086       -1.03850576745997
H           -4.22895738525585       -6.08911828064748        0.58906748106983
H           -2.45210476092017       -6.96151296903108        2.06394624540208
H           -0.15254900161939       -6.08638720736856        1.85252906156654
H            0.34984626593190       -4.32158984195244        0.24263724519441
H           -3.58436706265156       -0.58606644820297       -0.88457014557134
H           -3.72077939768438       -1.97060800818744       -1.96678222179132
H           -3.55365545650707       -2.23135769163090       -0.22498376635684
H           -1.90599585408120        0.08543183413130       -2.44560980259473
H           -0.37392251942398       -0.80758250405404       -2.56066861216525
H           -1.83811853612015       -1.43420758758023       -3.32764639664029
H           -2.63638865969464       -1.18520859599537        1.46023712736723
H           -1.56629226431203       -2.59455834903121        1.34161646966860
H            0.25846305353997       -1.19553193022071        2.45988488161498
H           -0.73311671297468       -0.00755992877856        4.33309850256662
H           -2.38578025076067       -0.12227061832176        3.56114216557224
H           -0.80514018627983        0.92990606308708        0.87976570215537
H           -0.81391069056007        1.04677210845281       -0.86680125935419
H           -2.32260607988144        0.80384963784881        0.02209280915907
