33
 energy: -34.728031161032 gnorm: 0.000473333102 xtb: 6.7.1 (edcfbbe)
C            0.88796528687712        0.18565604818244        0.05776892590821
C            0.45545666094141        1.39561723261992       -0.76302948114361
P            1.20629533918736        1.41085494361003       -2.42630165232901
C            0.66764891645693       -0.06701621700140       -3.35874914587714
C           -0.83467157308377       -0.31991965334009       -3.28261231883185
C            0.65423306503620        2.88272925800657       -3.36483155177937
C            0.46842112486867        4.14489118480516       -2.52793361973908
C            3.02971647877739        1.30626099595218       -2.39503931399741
C            3.76030349396804        2.54332558586083       -1.85654584368928
C            3.44242435669643        2.80258851232858       -0.40972101909337
C            3.95130436266353        2.09547068074045        0.58252322691440
H            0.68152405509334       -0.74842242804136       -0.45975259799473
H            0.34409720434344        0.17390873758726        0.99894618961514
H            1.94976687102416        0.23489329909393        0.28877508670383
H           -0.62911114218342        1.40386404625191       -0.90776560985232
H            0.73802542350394        2.31733963791747       -0.25130176220530
H            0.97547596121300        0.08844487954559       -4.39757868490746
H            1.22140089596123       -0.92837656018717       -2.97524772063013
H           -1.40479030636362        0.54810826184316       -3.60663511534306
H           -1.09575944043915       -1.14938625234602       -3.93495538960255
H           -1.14356348387347       -0.58178222617313       -2.27396467970724
H            1.39572694220754        3.04794669217230       -4.15304084690038
H           -0.29013505162203        2.61926762790368       -3.84966327254349
H            1.38460179940536        4.43044694730492       -2.01881124377751
H            0.18014695724861        4.96637221451387       -3.17952350345062
H           -0.31786828010345        4.01535850590038       -1.78850801087946
H            3.29100086057568        0.42901105259050       -1.79647665510139
H            3.33532589081766        1.11190200432305       -3.42909014780280
H            4.83157183819810        2.35836261142530       -1.96119931128993
H            3.51559670583245        3.41587837226567       -2.46322981868311
H            2.76993884479784        3.62434253882656       -0.20133949566225
H            3.70994072278066        2.29957150012960        1.61060547892927
H            4.65201921919194        1.29430996538564        0.40861890474438
