66
 energy: -79.498316318779 gnorm: 0.000203117070 xtb: 6.7.1 (edcfbbe)
C            2.80252627289267       -1.18849926535575        2.50882607037913
C            2.14467874746972       -0.85024267548866        3.84152313434867
C            2.38118630262541        0.59503676194526        4.28406271795343
C            1.83625720263139        1.65966316643733        3.32973215235319
C            0.33303202251737        1.57383732961394        3.05751372250931
C           -0.55324735559818        1.70110281612388        4.29974618848380
C           -0.40464913416496        3.01402121422599        5.07962791779163
C           -0.66484989533400        4.31056716491965        4.30477909217774
O           -1.98642944893146        4.84722816915260        4.44748492057081
C           -3.02357549339215        4.13002751616463        3.90455621900866
N           -3.02283761866205        4.23394668691428        2.43504251982820
C           -2.65737417654436        3.26134748897766        1.55135111758282
C           -2.67626267414743        3.81662947331883        0.30939204559958
N           -3.04152419087395        5.12383048652734        0.45517126642203
C           -3.24970087591384        5.34968186451462        1.74853866271914
C           -3.32211115170795        6.07116523779013       -0.63675489777401
O           -4.65581600802580        6.05928860226845       -0.96459413481095
C           -5.13232986101745        4.96680665322786       -1.76065930694897
C           -4.58242903464138        4.93715105785218       -3.19191522281915
C           -3.43152635440976        3.95867534167209       -3.45711749159700
C           -3.77317460422563        2.48223301369930       -3.23601825737064
C           -4.87795527748666        1.93586190554792       -4.14296991125671
C           -4.59685623575411        2.04107992189424       -5.64336648189295
C           -3.31862037773632        1.34304125121232       -6.11179462876114
C           -3.32252078281962       -0.15896440027026       -5.85280927182563
H            2.34515088845311       -0.63959714997499        1.68897151354281
H            2.70134449316809       -2.25059324555349        2.29982017178116
H            3.86224555948101       -0.94634122143250        2.53664814975495
H            1.07380092723875       -1.05585459790744        3.78298476909908
H            2.55564022428448       -1.50673034441007        4.61111225048405
H            1.94646573705813        0.73457172066149        5.27599387440616
H            3.45711702409702        0.75539825843564        4.38005198380707
H            2.07461451204205        2.64505359016257        3.73587852760675
H            2.35515982577482        1.57585377095539        2.37347224123861
H            0.07738938488022        2.35049509071128        2.32909695106038
H            0.11361481745033        0.61432922717028        2.58565826663312
H           -1.59431144202550        1.54150668660510        4.00310750944869
H           -0.30485889614060        0.89033861038748        4.98534631282988
H           -1.07254491999119        2.99719784328412        5.94361514258297
H            0.61242525769452        3.06026522072575        5.46710499982235
H           -0.04312467198957        5.11067042789988        4.70848731712812
H           -0.42437173316844        4.19443549147904        3.24157563508461
H           -3.00088219065182        3.06255396190664        4.15301802122560
H           -3.94801067648469        4.58138271559892        4.27997754172873
H           -2.41979307165451        2.26221741365231        1.85523507184835
H           -2.44684341516595        3.38221761811101       -0.64273822390571
H           -3.54772601681108        6.28721348286871        2.17696543434621
H           -3.09126877540071        7.07807623921313       -0.27530038655765
H           -2.66233886028965        5.81141007951408       -1.47325127689339
H           -4.94791463097407        4.01948657814737       -1.24049185191778
H           -6.20892506798906        5.13982948080386       -1.77692115187985
H           -5.40105716165198        4.68335195817713       -3.86372795009920
H           -4.26417360953356        5.94945561195362       -3.45120708300465
H           -3.12473619938770        4.09032406429798       -4.49507986111845
H           -2.55948393552745        4.21071089208203       -2.84516407196763
H           -2.86442817954262        1.89899405113778       -3.39620687608673
H           -4.08066888150533        2.31619999250691       -2.19850870187823
H           -5.03287755728029        0.88709856508846       -3.88502316750264
H           -5.81342541307404        2.45673978134730       -3.92801574476301
H           -5.44481177126181        1.59935131845114       -6.17097358775215
H           -4.55089437319264        3.09243262469454       -5.93522254784294
H           -3.21949597213922        1.51267890779851       -7.18590353232284
H           -2.44635878465690        1.79387538305077       -5.63382447386217
H           -4.20865463700886       -0.61624266467460       -6.28640218840026
H           -2.44663602234215       -0.61936729050769       -6.30330808583260
H           -3.30771178160519       -0.37862692706637       -4.78790906436592
