34
 energy: -45.431272450873 gnorm: 0.000488645942 xtb: 6.7.1 (edcfbbe)
C            0.54806483267698       -0.05198096821529        0.13353791250011
C            0.25308062205904        0.70274817400707        1.43155999194109
N            0.99268169441590        1.97711099908551        1.38417442805495
C            0.49885908684347        3.21098570551693        1.08117562441504
C            1.53559780804317        4.09133495632815        1.12680207069045
N            2.65244537588530        3.38113632576195        1.44084821867205
C            2.29920153290652        2.10842352037909        1.59848834574497
C            3.95236911453262        3.90300756445690        1.76316129553469
C            4.23889318519170        3.70115658960141        3.24424636000552
C            5.18669813542519        4.47151043181076        3.90118063089349
C            5.41398951919669        4.21907044486549        5.24594631657931
C            4.68692732775730        3.22077398117803        5.87595451425432
C            3.76231323858697        2.51076631545505        5.12673161857730
N            3.54590518753445        2.74340448882520        3.84251503168946
C           -1.24175925922758        0.98544519328833        1.55467527974729
C            0.73507976606342       -0.08951547914050        2.64790750899147
H            0.21967185188548        0.52113328191072       -0.73058831303183
H            0.01725424022544       -0.99921078909942        0.13483310291601
H            1.61106613202989       -0.25687035236083        0.03206223453556
H           -0.53038724845154        3.39549510946509        0.85953730127580
H            1.54797210745267        5.14796058031570        0.95492734794079
H            2.97742912319571        1.32301864695401        1.85728423776856
H            4.71494712909713        3.37590059860329        1.17871946364486
H            3.99112363032939        4.96330297416927        1.50779086198189
H            5.73251533820563        5.24056080497965        3.37841701832460
H            6.14561155778635        4.79535570534388        5.79054766478008
H            4.83391467066719        2.99737170605624        6.91964467362781
H            3.16760518243592        1.71947106733755        5.56189456058951
H           -1.77019437014436        0.04626666477554        1.68990608133902
H           -1.45078041149031        1.61499261692607        2.41631978514948
H           -1.63732115874362        1.45423805649195        0.65758337231860
H            0.09256935898414       -0.95260310864493        2.79397979905938
H            1.74975799171981       -0.45395625837292        2.51759670572836
H            0.69283770691422        0.52275445194054        3.54530895375894
