45
 energy: -49.733007791005 gnorm: 0.000222279757 xtb: 6.7.1 (edcfbbe)
C            1.57557549448553        0.61199265107449       -0.45144238859967
C            1.15392950274834        0.05781230601091        0.90421343554610
C            1.33896917237940        1.05534275193403        2.04885712761467
C            0.51646711718758        2.33976690286319        1.92477902853966
C           -0.99817852684117        2.13222020924962        1.85997314947762
C           -1.60508102119213        1.40685524707474        3.06286201042682
C           -1.33853235153591        2.06018177727794        4.42176277320065
C           -1.79808925965425        3.51941381526950        4.53313806325760
C           -3.31431420401495        3.71258097075992        4.39933194655083
N           -4.05083751582880        4.00376195121541        5.66651482523319
C           -3.58141566826945        5.25294336299207        6.33858092074247
C           -3.25285602276032        6.43219532741162        5.41615428713192
O           -4.34785132461187        6.71635361610401        4.57613293302644
C           -5.48459713345342        4.14653663549698        5.33204277895687
C           -3.90720270549814        2.88130787021547        6.61133974567043
H            0.92248634604727        1.42085206481022       -0.76960204038645
H            1.53265902063580       -0.17011245511684       -1.20523912423321
H            2.59523307851972        0.98800012583601       -0.40813320381367
H            0.11392066404093       -0.27078853510861        0.85660761464909
H            1.76029184803503       -0.82284266801638        1.12699669110648
H            1.09982275182512        0.55633234520329        2.99080158448946
H            2.39331749698916        1.33792070890395        2.09350067565182
H            0.76455364888179        2.98811384160945        2.76904036743326
H            0.82159845733588        2.86832951171000        1.02060072829722
H           -1.47891490346450        3.10641428231207        1.73663601548555
H           -1.23728515641116        1.55201132465082        0.96823428653079
H           -2.68149481542131        1.31142266821232        2.89448720607948
H           -1.20549054259929        0.39332170302433        3.10272126230333
H           -1.81437851661683        1.45120803978892        5.19367042213437
H           -0.26562775500203        2.03804271358772        4.61324751526228
H           -1.43467285690982        3.92698830049807        5.47678207611684
H           -1.30599468002996        4.08425632116238        3.74186573019858
H           -3.54317864391829        4.52750198642290        3.71251541914548
H           -3.74817443848579        2.80227524548281        3.98251484533406
H           -4.36973713037608        5.55993589707569        7.02835587721599
H           -2.68508659815290        5.03214202671709        6.91941988078838
H           -3.02779756942735        7.28172114525599        6.07244733913079
H           -2.35569821209049        6.22133506461943        4.81956004585131
H           -4.25014697513398        7.59403766313135        4.19270150713869
H           -5.83283554273596        3.26879933913008        4.79179271524956
H           -6.07149525408505        4.25015972177915        6.24258851259917
H           -5.62994988514943        5.03198914391661        4.71684418493589
H           -4.32438850575850        1.97620705678689        6.17350401703156
H           -2.85977881047178        2.70702916836965        6.84517286704008
H           -4.44005207317349        3.09904085338932        7.53552434440360
