60
 energy: -83.466552692290 gnorm: 0.000322678784 xtb: 6.7.1 (edcfbbe)
C            0.53951328893892        0.01412449974420        0.13020270763579
N            0.23852690797874        1.41951226691484        0.09011804815796
C           -1.01058611626890        1.96069262871945        0.06894276765921
C           -0.86236181312230        3.31534536954474        0.06453174344173
N            0.47108355402706        3.58045522821427        0.08161279508708
C            1.11696798787614        2.41883002369458        0.09853157297922
C            1.08853310970206        4.89289443805944        0.11041116903334
C            1.73147674316584        5.23134805175039        1.44012138817365
C            3.01332953122857        4.75787495019735        1.69424088033315
C            3.68201293117530        5.06424725032131        2.87256269209694
C            3.15655251637178        6.09915904008166        3.64008399713001
C            1.87192095719877        6.54753580570614        3.41592879418937
C            1.07954359755359        6.00358048768093        2.40783937656239
C           -0.41359610855385        6.10115035149029        2.54325660130806
C           -0.96430813171562        5.02505058929954        3.56037022789008
C            0.13267566104995        4.11902494092690        4.03939778069969
C            0.52509855751697        3.01140325661011        3.29481191833355
C            1.80277016047604        2.50288554516186        3.42521350155200
C            2.71830298276974        3.06787048823419        4.30695343097461
C            4.18562428834890        2.90303136887213        4.06404494024566
C            4.78240988427817        4.20173881716402        3.41140171405672
C            2.20816567920726        3.94496169190862        5.27517582328241
C            0.92502286188261        4.46493292806185        5.12306510359539
C            3.01653440579476        4.43539112440511        6.38707451756254
N            4.26649039103753        4.27959177506541        6.53291465037354
C            4.67422738441361        4.90603910789906        7.77695712932829
C            3.33667397254829        5.48179169999345        8.32977502969204
O            2.36342264096360        5.12748014300963        7.35526514706455
C            5.27518180147144        3.85123004486080        8.70508216526925
C            5.69885133038110        6.00181880412359        7.48339338573811
H           -0.03836590536173       -0.51306811189805       -0.62862809044529
H            0.28467203496369       -0.39692758664202        1.10896179426165
H            1.59988920723864       -0.14334907074660       -0.05449316306712
H           -1.89889582825267        1.36253159059011        0.05916070756017
H           -1.60784720429251        4.08360883101924        0.04296353434685
H            2.18266970951948        2.30639370191557        0.11547131448342
H            1.86061505974358        4.91814203262882       -0.66379113307150
H            0.32318036439009        5.62744445977374       -0.14133438961913
H            3.48558884471471        4.09357534892891        0.98361421143543
H            3.71898768193219        6.47748879793495        4.47889555929904
H            1.43428007660072        7.26458648171665        4.09341782965979
H           -0.91581078139898        5.97042835721276        1.58551271851336
H           -0.67696409033712        7.08977095983675        2.91736875763883
H           -1.40747934271813        5.54394953585579        4.40877752946473
H           -1.74867433557627        4.44569014713930        3.07080675609936
H           -0.16019856166739        2.59637324386100        2.56944577773059
H            2.13141964209871        1.70440892716300        2.77298577256694
H            4.70813930956325        2.73582197539378        5.00364681141467
H            4.34852862822262        2.05349980019860        3.39951963746176
H            5.32229547431829        4.74834670291506        4.18159157777358
H            5.48192314258933        3.90988007043612        2.62812170836654
H            0.59207216429654        5.21969485758255        5.81805914852305
H            3.05379407978133        5.03718504684359        9.28697288953917
H            3.35538362409773        6.57029657331765        8.42781686701022
H            4.55572208552842        3.05705519493850        8.89285446402957
H            6.15663891313571        3.41598131526504        8.24251019385330
H            5.55807032104776        4.30626262346255        9.65060507224473
H            6.56887261093843        5.56814054730970        6.99804201580786
H            5.27471048621679        6.75757430263223        6.82498068233861
H            6.01030163096169        6.47646062570307        8.40989244534617
