54
 energy: -57.327196256213 gnorm: 0.000250672394 xtb: 6.7.1 (edcfbbe)
C            1.55165048408647        0.59283043623387        1.05884061650156
N            0.65843977907741        1.67373141064576        0.60034115303114
C            0.15079648283792        2.37929863958014        1.81766607766080
C           -0.61413791298480        3.66712886434280        1.52851247436667
C            0.22305301159534        4.61458728411137        0.67635178213755
C            0.67793150963739        3.88896813202675       -0.58516543276805
C            1.45665500326821        2.63431016975156       -0.20974511924649
C           -0.50343290042380        1.09433643522190       -0.15059415471671
C           -0.30791771876585        0.66296369829605       -1.60762077273933
C            0.51358038570440       -0.59838154143866       -1.89304698709836
C            0.05369257747582       -1.85621188233787       -1.15227499509128
C           -1.39409103541256       -2.26971160680574       -1.42833885442559
C           -1.70427692271790       -2.59440744166270       -2.89099173782150
C           -0.86825867365153       -3.72707531060588       -3.49033437636057
C           -0.97274227232753       -5.06561041508717       -2.75633385320602
C           -2.38800092905084       -5.63839986447470       -2.65183789193323
C           -3.07977733575396       -5.89591707234507       -3.99132232806808
C           -2.36770723617813       -6.93925263556254       -4.84367754087304
H            1.00851303064447       -0.09205369236446        1.70738087963859
H            2.38844318657346        1.00626399404028        1.61966031327897
H            1.94238697718013        0.03960264828445        0.21008912528803
H            1.01945538115278        2.62418835581247        2.43298762166088
H           -0.47918511826393        1.68337108390485        2.37539225299597
H           -0.84920906271255        4.13050221799583        2.48701979975070
H           -1.56504336877137        3.46470205886291        1.03425722921872
H           -0.36174258965487        5.49447195020474        0.41434374643906
H            1.09366950265092        4.95131419420772        1.24186210781169
H           -0.18275839622181        3.64629829174607       -1.20855146659001
H            1.33555670669100        4.53093329494638       -1.17141123313584
H            1.82486650718690        2.11846145299482       -1.09644824285866
H            2.31974615801311        2.92842386293267        0.39261114678397
H           -0.86164352421478        0.24204721782240        0.42849925799236
H           -1.28866029472054        1.84935570941293       -0.15030772186285
H           -1.31893029727549        0.48086679679379       -1.97822818629817
H            0.08965230662272        1.48570734772759       -2.20262137484427
H            0.43725224268511       -0.78511325024051       -2.96482826040332
H            1.57500811145424       -0.42941716723076       -1.69340395913107
H            0.71278250559443       -2.67332393501400       -1.44590181814123
H            0.17596118808099       -1.72974388492355       -0.07345015217097
H           -1.61068735929024       -3.14853801715090       -0.81993186399518
H           -2.07562387706292       -1.48125118431211       -1.09785194803111
H           -2.76005692156317       -2.86062826302922       -2.95679065435194
H           -1.56498475736814       -1.70090123068404       -3.50471870962979
H           -1.18319898983632       -3.86378737722127       -4.52574661840536
H            0.18340034878956       -3.43126744413369       -3.51792176367053
H           -0.33644929096141       -5.78454839267730       -3.27466144139555
H           -0.57084543525130       -4.95987900240446       -1.74569484631365
H           -2.32751858100133       -6.58355505300886       -2.10670597399287
H           -3.01119545437406       -4.96479068932468       -2.05912963734108
H           -4.09439520891688       -6.24455033393246       -3.78485081812559
H           -3.16681029412672       -4.96384055193261       -4.55271146533083
H           -2.24335785264364       -7.86494045241802       -4.28615026880908
H           -2.94879440631501       -7.15452219207017       -5.73702858595174
H           -1.38675936920921       -6.59061566347156       -5.15651452947333
