41
 energy: -42.508999861917 gnorm: 0.000246009754 xtb: 6.7.1 (edcfbbe)
C            1.22778722456033       -0.04628067362504       -0.57916863428678
C            0.98215973103059        0.16290438896604        0.91035322150522
C            1.33350904489499        1.57276248527800        1.38862640528332
C            0.53973321062158        2.69786955905553        0.72066372628112
C           -0.97917548618604        2.59455801383562        0.87363824535444
C           -1.48126813330877        2.58533047819490        2.31865670841843
C           -1.10954411544069        3.81884175693636        3.14634464637417
C           -1.53196027956521        5.16216857115302        2.53727199467590
C           -3.03199568442162        5.31930408632628        2.26347677840138
N           -3.84139424903124        6.01927653295561        3.31118770296807
C           -3.48239910991179        7.44752641232804        3.37590923185011
C           -5.26511704756180        5.90975862585427        2.93702768812452
C           -3.65245683033105        5.40447007525077        4.63593920040854
H            0.54621196944073        0.54962480646569       -1.18119338984250
H            1.07978270241724       -1.09126026847631       -0.83980857705054
H            2.24750840097445        0.22844780881775       -0.83854652241677
H           -0.05990818280607       -0.06469925218709        1.14374989297494
H            1.59876516584500       -0.54340326167777        1.47041714799094
H            1.19758360167750        1.61985592076104        2.47161433882276
H            2.39283953715621        1.75077509649403        1.19060262427114
H            0.88824900947715        3.65078242086309        1.12646545389759
H            0.76890697245269        2.70588796368780       -0.34568118755820
H           -1.44163135527507        3.42007574287661        0.32578783615767
H           -1.31888166508065        1.67404154398613        0.39804674801750
H           -2.56703883956549        2.45003981906803        2.30570351312923
H           -1.07025986845533        1.71404658110737        2.82858019610672
H           -1.52511797341846        3.69620701971667        4.14790841185517
H           -0.02539540911564        3.84639142318779        3.25648683980393
H           -1.16014573346433        5.96813306184444        3.17059256960859
H           -1.01824532372060        5.26545687681103        1.58151410696266
H           -3.17525800438133        5.88124341824215        1.33864326652592
H           -3.46538854463124        4.32812478492076        2.12178210432085
H           -3.66837939783459        7.92570537580549        2.41586659003629
H           -4.07815875034215        7.94813960808446        4.13712215445861
H           -2.43121376518665        7.56952645074123        3.62634020252887
H           -5.57900595612902        4.86734195283741        2.94105231116809
H           -5.88312989381572        6.46068843318735        3.64407636968577
H           -5.42828680684718        6.31865514690178        1.94140691380903
H           -3.87112749222435        4.33938376224053        4.58729119013177
H           -2.62919204696552        5.54196038459918        4.97640680125407
H           -4.32289062550918        5.86608706660417        5.35941517797684
