28
 energy: -34.809604453631 gnorm: 0.000236414210 xtb: 6.7.1 (edcfbbe)
O            3.04121760694646       -0.80382613670828       -1.91311164932144
C            1.97702295624626       -0.28907983007634       -2.68830738587386
C            0.74477720524514       -0.10115704293369       -1.80124748381340
O            0.81410768448187        1.03266037486589       -0.95365285612340
C            1.70104951907475        0.87781534731866        0.13861450769225
C            1.96405577261680        2.22197504751395        0.81885366796567
N            0.75111059830553        3.00104338010903        1.21703925349520
C           -0.28004018290319        2.12370285572135        1.79789742989970
C            1.14717971278006        4.01003741618383        2.21733414807188
C            0.18936515973702        3.69067957781598        0.03878729616430
H            3.72738167639913       -1.14617668217695       -2.49514683045575
H            2.25684915852723        0.67650851424819       -3.13218568500378
H            1.70858124811291       -0.98252107510413       -3.49237967523217
H           -0.12816853493800        0.07269762709644       -2.43234368409941
H            0.59263839293596       -1.00714294872705       -1.20288994253709
H            1.28973718258159        0.14481035974394        0.84759109157513
H            2.66666225074513        0.49156444722343       -0.20726548149618
H            2.55636859340872        2.01983048702200        1.71314768926474
H            2.54809951568622        2.85368544955949        0.14766142729504
H            0.13807819817861        1.53980276720761        2.61590811112150
H           -1.10222249213224        2.72486198431741        2.18208621614282
H           -0.66629990932091        1.45430262880742        1.03247030545650
H            1.95712117913423        4.62693307355358        1.83185222189737
H            0.30139417418409        4.65432210439833        2.45184230190977
H            1.48075635606709        3.52739402321627        3.13445986223041
H            0.89314953388024        4.43377250612095       -0.33092321277300
H           -0.00105277609458        2.96181026741227       -0.74665092571013
H           -0.73917977988116        4.19053347627076        0.30704928225195
