35
 energy: -78.642818471406 gnorm: 0.000265353321 xtb: 6.7.1 (edcfbbe)
F            0.75986703214446       -0.39852948920064        0.72366661337569
S           -0.39503011510294       -1.03539310403701       -0.24240226408905
C            0.71261769228220        2.52515795157156       -0.90108712156076
C           -0.20157856704925        3.52439042294533       -0.13868348786876
C           -0.83686101938713        3.01850358264527        1.14992124364985
C            0.11570568696349        2.47398031107380        2.21850531971498
C            1.19454065707950        3.43553664721926        2.71734412216330
C            0.65790548199237        4.67266976900973        3.45251660041993
N            0.06121883847227        4.29944254447159        4.72318478909017
C            0.85529129099346        4.09108226830239        5.78030816967518
C            0.34167488418165        3.67472270346528        6.99038938144332
C           -1.02643835770134        3.46196443933032        7.11057789275144
C           -1.83338357396311        3.67999304414265        6.00200890343708
C           -1.25706153014735        4.09919923297341        4.81962396926185
F            0.53739576340322        4.64603243970671        0.08434366826498
F           -1.17768213039236        3.89737014259552       -0.99733978571267
F            1.81498472010980        2.24812009553025       -0.21288510489943
F            1.07006261112260        2.99117099267758       -2.08287538444687
F            0.74973149810934       -2.06389588710438       -0.88277665673281
F           -0.87959661476746       -2.19362568091272        0.77001816428555
F           -1.48536753778507        0.03426486089223        0.56004214482843
F            0.07060762256491        1.34966118088551       -1.11279749542049
H           -1.42751329245436        3.85928747711654        1.52214209184391
H           -1.53271474583382        2.22507892801138        0.87311857820953
H           -0.50412177635510        2.13756966171507        3.05254856747737
H            0.61639305792964        1.58742771166461        1.83548933185523
H            1.85783507232855        2.88302246759646        3.38495584159826
H            1.80105337436959        3.78681412918531        1.88459333060720
H            1.48369664897783        5.36091325051652        3.64046648205453
H           -0.08201990448851        5.18736131170909        2.83968640415679
H            1.91246729296136        4.26820578806042        5.64612349707473
H            1.00439669001059        3.52163153990706        7.82700676633158
H           -1.45281572456505        3.13730842292158        8.04661161370476
H           -2.89992328034777        3.52916871807722        6.05060403600822
H           -1.85644774566282        4.28960212529354        3.94211977749880
