23
 energy: -33.518413508806 gnorm: 0.000657787309 xtb: 6.7.1 (edcfbbe)
O            0.46578187175413        1.52954521945936       -0.40621614146407
N           -0.01714844309551        0.74277266122134       -1.44085616633167
C           -1.05527459159992        0.06129506634258       -1.23133105136067
C           -1.79872590429207        0.05172645480884        0.10726481463231
N           -2.53977277021727        1.27904734075872        0.26967752946162
C           -3.81267333809524        1.50397859053164       -0.15941414961637
C           -4.10482156689129        2.80701300443357        0.10699199808700
N           -3.00359812338378        3.35802237379598        0.68855847291410
C           -2.06934535928097        2.41595429275460        0.77631091625154
C           -2.88461112758342        4.72419467878608        1.12081677640000
C           -1.59454364650107       -0.77687638473972       -2.33255116045203
H            1.31914149812859        1.85139760239357       -0.73509776276412
H           -2.48638648725222       -0.79263066400226        0.15222632479673
H           -1.06059114715583       -0.02211066617125        0.91082039395490
H           -4.41748804545530        0.74027867126962       -0.60389764318356
H           -5.00122170986091        3.36387177139173       -0.07449797032883
H           -1.08141440216376        2.54172798178485        1.17595717779786
H           -1.93751334569280        4.86767879413188        1.63622995213554
H           -2.92713732344094        5.39492151246055        0.26100994912711
H           -3.70294550569720        4.97554441719848        1.79640497346587
H           -0.97974479249393       -0.66292390418870       -3.21961080365074
H           -1.59695601353627       -1.82400879958167       -2.03416547450580
H           -2.61852972619297       -0.48893001483994       -2.56598095536601
