35
 energy: -46.248954641540 gnorm: 0.000167144686 xtb: 6.7.1 (edcfbbe)
C            0.46394525728989       -0.81915201863636        0.47565346456531
C            1.04379262580041        0.56156802206068        0.19363761429470
C            1.26785213075677        0.83510541121113       -1.29501414956446
C           -0.01482583413326        0.93822034535736       -2.13348355216593
N           -0.90607646226950        2.01233514923892       -1.72806848973659
C           -0.77176700694692        3.28935073013195       -2.07025010133037
O           -1.50337015475565        4.19471405649010       -1.70836391245453
C            0.39105276810116        3.65234791553780       -3.05332452234317
N            0.57699316819497        5.06848677373654       -2.96195519565497
C            1.63592814411842        5.71956875604115       -2.39996399615986
C            1.28834508036018        7.02845510406221       -2.28222702703487
N            0.01667819442325        7.15608914973297       -2.75831445435120
C           -0.39844491780197        5.95744760473522       -3.15444923195200
C           -0.73737766746027        8.37930686864703       -2.79486921938339
C           -2.06213168630139        1.63560979017752       -0.93251647874053
H           -0.52835589428265       -0.94110833188552        0.04885599225670
H            0.38848278561738       -0.97687921926443        1.54809875037286
H            1.10990932358722       -1.59100722475377        0.06461087934046
H            0.40397746045317        1.33727898020032        0.61887268010835
H            2.01155969254760        0.63647894039804        0.69332748749810
H            1.85080949372761        1.75418568528866       -1.38585836370343
H            1.86512195485689        0.02543412798307       -1.71797000096039
H            0.24880520558391        1.05471248428280       -3.18842836734590
H           -0.57316874802542        0.00665584378953       -2.03895085155178
H            1.32447759019633        3.15013732042714       -2.81048554397083
H            0.07160626819187        3.37163165953427       -4.06137186056272
H            2.54586134927189        5.22153749325551       -2.13474878066305
H            1.84520027368665        7.85806761101833       -1.89724646553546
H           -1.35745036290912        5.74422909070801       -3.58277641002142
H           -0.21574937130669        9.12551864276112       -3.39513052728189
H           -1.71887228817188        8.19398276903430       -3.22444698056225
H           -0.86192335340741        8.77034363852625       -1.78440731834352
H           -2.70565382292379        0.97064772741180       -1.51046563946361
H           -1.75256081059944        1.13026376325945       -0.02040171261315
H           -2.61683038549682        2.53488533947691       -0.67479771500663
