24
 energy: -28.931437418684 gnorm: 0.000479266743 xtb: 6.7.1 (edcfbbe)
C            1.39457397071805       -0.03637906083127       -0.20462470644839
C            0.56254095665066        0.44137070375120       -1.38972699988001
C            0.82045623448240       -0.41498447428347       -2.65422767584366
N            0.45343008311200       -1.80060583131167       -2.45025452028524
C            1.35340330102820       -2.66187117512683       -1.96094259464993
C            1.01056584514738       -3.96542081410633       -1.66651249765428
C           -0.29496310183407       -4.38927360815335       -1.87856134998093
C           -1.21232615597996       -3.48368868859718       -2.39542428159101
C           -0.80621984594288       -2.19452612986111       -2.67234623485744
C           -0.91885275994081        0.49415091421412       -1.03309296698159
H            1.09002588453936       -1.02754899236880        0.12742087862291
H            1.25722166730865        0.64361989464650        0.63086805422888
H            2.45437390031797       -0.05059063317394       -0.44617718444045
H            0.88908725873941        1.45044214775153       -1.65700135492582
H            0.23815105857760       -0.01171055951484       -3.48452891539050
H            1.87992230696714       -0.36333773850521       -2.91061810470962
H            2.35959319801450       -2.29845135623372       -1.81565795560973
H            1.75817904196604       -4.63778428997456       -1.27732790561946
H           -0.58835368279334       -5.40214063394466       -1.65320608731693
H           -2.23363948053362       -3.77257156054213       -2.58477582328465
H           -1.48753432695260       -1.46664594544332       -3.08624513298602
H           -1.06712917036990        1.18534645961016       -0.20859659105846
H           -1.51426043660303        0.84922403812883       -1.87077891946691
H           -1.29128574661951       -0.47828266613005       -0.71486112987035
