25
 energy: -33.012003096252 gnorm: 0.000891941503 xtb: 6.7.1 (edcfbbe)
C            1.20827534365339        0.11665607234693        0.24141189022635
O            0.37323323056452       -0.45646250128615        1.23829685385717
C            0.74366494345084       -1.52911540064044        1.89122087142865
C            1.95743154130697       -2.22647874888685        1.72608942581525
C            2.20441925082094       -3.34575257260520        2.47604821920523
N            1.32826693322911       -3.81707325379987        3.37428402788270
C            0.16604596858147       -3.16744355441113        3.55981303884283
C           -0.15369059025304       -2.04352384191027        2.85356519328125
C            1.63685748072333       -5.03119775998222        4.14422507859819
C            1.82011808850022       -6.21926366764590        3.20448097390066
C            2.85856199114973       -4.79876213677036        5.02818290573739
H            0.65739057148536        0.97348576547224       -0.14043827746617
H            1.39169794091267       -0.58938212841411       -0.57147251600692
H            2.15590277825442        0.45408286321380        0.66666467716805
H            2.70035095031255       -1.89696279650857        1.01854630292608
H            3.12926134460253       -3.88866093056596        2.35899843041553
H           -0.51387295699623       -3.57228409164332        4.29462015408338
H           -1.09087729597511       -1.53650587087060        3.01553631427837
H            0.77051158550981       -5.22067329721966        4.78456543429287
H            2.71745398142694       -6.12238060249791        2.59945534529885
H            1.91157968123743       -7.12742699092894        3.79301278789568
H            0.96190199711552       -6.32791977987225        2.54529364490926
H            2.72046741465576       -3.92277748130493        5.65774736744286
H            2.99967007021788       -5.66063431417015        5.67373137858611
H            3.76334775551305       -4.66930297909823        4.44048047740045
