39
 energy: -44.734408814469 gnorm: 0.000567504685 xtb: 6.7.1 (edcfbbe)
C            1.03032825626684        0.15991315960605       -0.33099612359359
C            0.52117169026940       -0.78320429450721       -1.41503586332170
N            0.96837370814944       -2.20595622125731       -1.32775352623255
C            0.45255573273170       -2.81128576054524       -0.01075415753906
C           -1.06266537525386       -2.87792862281732        0.04968925423388
C           -1.77075589184438       -1.86405065489752        0.68916163120933
C           -3.14918367530025       -1.91699697955809        0.80158023472473
C           -3.84792925155228       -2.99248468505910        0.28240100882287
C           -3.15491232082306       -4.01988588213510       -0.33501515867623
C           -1.77705465246220       -3.96686918755364       -0.44692666822992
C            1.06858696126121       -4.16812806277063        0.32717095741779
C            0.35376838501357       -2.96925627130876       -2.45853570500274
C            0.81561831435845       -2.66670874905931       -3.87568672178491
C            2.46355347562309       -2.30870189808135       -1.33762672090848
C            3.24517286511004       -1.37041389536032       -2.25202437758314
H            0.56054453870110       -0.01339418460197        0.63198112789115
H            0.77516679449069        1.17343362318522       -0.63192404436499
H            2.10599863293188        0.11715937052498       -0.19733837488655
H           -0.57084722773555       -0.78545911334725       -1.39495289732614
H            0.84243986985732       -0.40755387289264       -2.38553546614454
H            0.78277560183873       -2.11058189425357        0.75993151404138
H           -1.24838578622066       -1.02825749547391        1.12991501275369
H           -3.67331244519507       -1.11989568246704        1.30488920571468
H           -4.92154668973867       -3.03773148692208        0.37134594461452
H           -3.68633270665859       -4.87375000511933       -0.72506836975394
H           -1.26841725760619       -4.79546988426876       -0.91375480188682
H            2.11898004835321       -4.09051878549653        0.59176814090872
H            0.54358846193054       -4.55493112669603        1.19790289306894
H            0.96472532700014       -4.90322993686227       -0.46482581168862
H            0.54075735102789       -4.02644430549675       -2.27082933573144
H           -0.72265808200842       -2.79821204814579       -2.40041092992129
H            1.82713062363512       -3.01348288848154       -4.06248762319980
H            0.16030889917703       -3.21720438712073       -4.54747612128412
H            0.73154969268579       -1.61644809827449       -4.13743552129497
H            2.80529564802873       -2.12882732722898       -0.31690168826906
H            2.70969198832546       -3.33741271429114       -1.60259601609168
H            3.14915984953085       -0.32720613098356       -1.97106025462845
H            4.29519148000731       -1.63652997597983       -2.14803347811795
H            2.98839716609334       -1.46972364400069       -3.29883116794062
