37
 energy: -46.961060101673 gnorm: 0.000202691185 xtb: 6.7.1 (edcfbbe)
C            0.12594165098033        0.96888486455438       -0.00938358741198
C            0.88725575370123        2.25652589604685        0.27785132861617
N            1.65643254936992        2.83396449821156       -0.86728228300178
C            2.51855533414083        3.96437174470317       -0.42313303014525
C            3.45466900342957        4.48154614895348       -1.31338412801994
C            4.25928129716686        5.54643542249509       -0.94852020734311
C            4.13427550738394        6.12077549922466        0.30441851718232
C            3.19022673641711        5.62330492722050        1.18214865715288
C            2.38184507134377        4.55408326901994        0.82501041375423
C            0.71485534662537        3.36732741431705       -1.91665337632692
C           -0.13590923155436        4.50478761585664       -1.41539960025219
C           -1.40095455888784        4.26176652991308       -0.88843923334969
C           -2.17728570515178        5.30635503564158       -0.41797729351407
C           -1.69971694241158        6.60480521023333       -0.47146313203895
C           -0.45047772265880        6.85725781511887       -1.01327517008354
C            0.32651406868732        5.81478507276204       -1.48581818503146
C            2.49518495920580        1.76764236751565       -1.45164383190681
H           -0.53051375956065        1.04753498461845       -0.87117599233786
H           -0.50053324338944        0.76341037221200        0.85554659948130
H            0.78346073380109        0.11429979917388       -0.13870167242582
H            0.17619165975098        3.01791804973052        0.60243697464086
H            1.60050222439169        2.06173276917097        1.08122976163166
H            3.57363398173167        4.08298944881071       -2.30848889753993
H            4.98050969566664        5.92762114281467       -1.65394339076917
H            4.76046131298684        6.95095426991785        0.58815939980103
H            3.06885613848516        6.06489859051385        2.15826270965017
H            1.65646220980593        4.21970932397380        1.54547083816081
H            1.32022346923874        3.70570530969732       -2.75873642988245
H            0.08567510194427        2.54257654037287       -2.25330670602580
H           -1.79578581023694        3.25625252224601       -0.86252439512133
H           -3.15744595947896        5.10458990533601       -0.01533846451468
H           -2.30487225886718        7.41862740381152       -0.10473619914687
H           -0.08086387805021        7.86863267259579       -1.07627437734886
H            1.29127002919305        6.02628582469089       -1.92229787547074
H            3.16310283670800        1.37374587906346       -0.68696469586129
H            1.86667257104703        0.96713220391425       -1.83293966242747
H            3.09462982704343        2.14281365554995       -2.27534338275032
