23
 energy: -33.851339433528 gnorm: 0.000453177550 xtb: 6.7.1 (edcfbbe)
C            1.02580336410412        0.24875404197584        0.56381066080069
C            0.54874928340367        1.51235826360541       -0.13052458548342
O            1.25051134994186        1.77941020875029       -1.35798777166498
N            2.56654844583190        2.12550629167194       -1.21114765830948
C            3.51194277206042        1.21063784368500       -1.48752307984387
C            4.83440896874875        1.53754823618885       -1.42165584102772
C            5.22845560857692        2.84859988953862       -1.06190567639098
C            4.19820417695570        3.77427550384744       -0.78568204797270
C            2.89027579066684        3.38073613159959       -0.87363603109815
O            6.51124527269452        3.09462037190433       -1.02025476860360
C            7.00145408266669        4.38498018717294       -0.68095181316565
H            0.96806795559885       -0.60140301287572       -0.11114308786135
H            0.38172771198098        0.05154410883527        1.41532180184244
H            2.04727925372182        0.35047309310977        0.92750509537198
H           -0.48077823504028        1.40659255870194       -0.47436325934246
H            0.61847815022792        2.38067250395031        0.53405598955146
H            3.16160172399391        0.22915247859810       -1.77041951552312
H            5.59543100677888        0.80765308321156       -1.64593933104034
H            4.41869139929952        4.79368334811620       -0.51424603103199
H            2.07110153701956        4.06087576377942       -0.68938038525555
H            6.65571600261391        5.13743053152159       -1.39251505954561
H            6.70759451770436        4.66332677418822        0.33319917270477
H            8.08535986045111        4.30665179892282       -0.73512677710975
