33
 energy: -37.078317401566 gnorm: 0.000478485915 xtb: 6.7.1 (edcfbbe)
C            1.18530039339760        0.43805488636809       -0.26029697050562
C            0.73031490889501        0.06856000124526        1.14701719850459
C            1.00711532709949        1.15448978161517        2.19041579255655
C            0.39324965798808        2.53613160122949        1.89439064641199
C           -1.14269439103600        2.52506894839821        1.67099824999803
N           -2.03178760714512        2.75155379872156        2.84899419267720
C           -2.07026440524436        4.18754739388547        3.19138024795298
C           -3.39540286200218        2.31997967886197        2.48383260132332
C           -1.59105003256584        1.98678268453562        4.02776682989361
O            0.70698225555644        3.47732662548148        2.90815280262166
C            2.01321715368848        4.01800610766840        2.85415320104514
H            0.59649848313012        1.25297579963194       -0.67531477828043
H            1.07814604309449       -0.41968258358383       -0.91869389958594
H            2.23204788897984        0.73117145360541       -0.25782537769872
H           -0.32916826270260       -0.20036663226212        1.13082411760827
H            1.27210097404546       -0.82395282405929        1.46378385731630
H            0.69094544838726        0.80179727602895        3.17222438327504
H            2.08808264637651        1.29761411854484        2.23785767441390
H            0.82575708631676        2.88640841358835        0.94455255747012
H           -1.39172680836061        3.30065742608360        0.94429863327486
H           -1.39541751476601        1.55856618039798        1.23385090687959
H           -2.48023750189314        4.76062800070771        2.36208200213936
H           -2.69551518003750        4.34380311674574        4.06805090640344
H           -1.06034742362020        4.53267635898353        3.40101551363791
H           -3.42107981793143        1.24636961087741        2.30364140532007
H           -4.08695814774466        2.55154388177071        3.29232729307396
H           -3.72900972800144        2.83418013341824        1.58391590799572
H           -1.54155835996752        0.92654711968666        3.78821859570315
H           -0.61158569050854        2.34179790283697        4.34115025436264
H           -2.29723467229970        2.12790352936663        4.84425277383967
H            2.04124694012545        4.80598809738812        3.60360831222803
H            2.77273082927590        3.27071045567952        3.09344025564485
H            2.22012236947243        4.44307165655373        1.86796391249748
