21
 energy: -34.366819163702 gnorm: 0.000585850826 xtb: 6.7.1 (edcfbbe)
O            1.38223668305476       -0.89768799244243       -0.10309193745613
N            2.32693293562336       -0.16081268290209       -0.02151552472769
O            2.75084621951865        0.59039315951394       -0.86039496135915
C            3.02405110305096       -0.19974617576158        1.24337917305945
C            2.73824156293580       -1.01156466275823        2.30759580982581
N            3.63652158260733       -0.72314896783414        3.28024561072570
C            4.46238365594758        0.24240479953256        2.83484127367696
N            4.10275983089175        0.57962015122275        1.59181116569314
C            4.72976966986289        1.57949377579030        0.76506752484149
C            5.57818481839204        0.83339881651857        3.59547288991559
C            3.68642535277236       -1.35960874190987        4.57226720489441
H            1.96483881612579       -1.74926902139837        2.40237338914153
H            5.46924086134980        2.12746797825864        1.34125803607214
H            5.20857745153711        1.10982274813043       -0.09565470689460
H            3.98058199187075        2.27192887541090        0.38071357868277
H            6.49737972199483        0.81614866996345        3.01072208702504
H            5.36443075749596        1.87334745861273        3.84819175236563
H            5.74973949589514        0.28921646573624        4.51905538272435
H            4.62128617421862       -1.90850822525405        4.69324138216914
H            3.60045389020183       -0.61920418781984        5.36777575988630
H            2.85856742465265       -2.05990224060988        4.65509510973812
