14
 energy: -21.244371364849 gnorm: 0.000887298886 xtb: 6.7.1 (edcfbbe)
C            1.05251664656814        0.00212600286819        0.11217359438260
N            0.56723847383347       -0.09290878437904        1.46254857060098
C            0.38931108441324       -1.22141317984766        2.17890463908966
N           -0.04658724689306       -0.84981770669814        3.37832765075049
N           -0.14960687638267        0.47026219723175        3.44796812542424
C            0.22948910591580        0.92175905283740        2.28588236924283
N           -0.27624225622765       -1.60724891387685        4.46371462152595
H            0.68095023306693        0.91702020436242       -0.34520754313817
H            0.71402820502509       -0.85479787825551       -0.46744604859108
H            2.14397943548538        0.02351619891238        0.10356272279858
H            0.56453972576266       -2.22275389959169        1.84176282707898
H            0.25780019747106        1.96268516809048        2.03445474408453
H           -0.66627972608917       -2.52523552250375        4.29743726425593
H           -0.70732700194921       -1.08034293914997        5.21505646249450
