32
 energy: -41.436073436100 gnorm: 0.000538145389 xtb: 6.7.1 (edcfbbe)
C           -0.08531429748546        0.43515727026188       -0.31501963486874
C           -0.00854727685279       -0.42606841240742        0.68259039560517
C           -1.17443343919959       -1.24896657216594        1.14926903396742
N           -1.15189686703855       -2.64370199730566        0.58795341679412
C           -1.20423663479920       -2.57461431757145       -0.89248143381075
C           -0.18300650324760       -3.09078185270209       -1.67943149462828
C           -0.21837528176805       -3.03312423239389       -3.06652140681398
C            0.88495043731338       -3.62026477203496       -3.88363158685043
C           -1.31476935069479       -2.43583758440002       -3.67562233241479
C           -2.33802001915072       -1.91965863913264       -2.91163074612432
C           -2.30468181539383       -1.97883112289318       -1.52246069691044
O           -3.32952591897831       -1.45697048189098       -0.78970123018099
C           -2.32683940856746       -3.39755351552337        1.07591603061159
C            0.05129870400823       -3.32878053401538        1.09415707601626
H           -0.99853452014945        0.60031456138053       -0.86247212556850
H            0.76199800502098        1.02395690650749       -0.61794022913876
H            0.91772596875100       -0.54696169302401        1.22622841142363
H           -1.16836743170413       -1.33215535329562        2.23790164149107
H           -2.10778866505108       -0.78111120519473        0.83678654589269
H            0.67681055610615       -3.55945415389040       -1.23383965674465
H            0.58950163032286       -4.60218647482432       -4.25217803061976
H            1.09623480285330       -2.99574765375109       -4.74747167064078
H            1.79387490105260       -3.73614030499017       -3.30067263733444
H           -1.36748808039828       -2.37552333835894       -4.75088590766243
H           -3.18902603834339       -1.45620923852205       -3.38991893290742
H           -4.00742042115871       -1.09976220730082       -1.37847675769218
H           -2.32570021131346       -4.39335944811920        0.63564006115970
H           -2.28819661551252       -3.48507121882787        2.15996882874720
H           -3.24479916389937       -2.88699261542898        0.79664180443521
H            0.95158402490753       -2.81535167828049        0.76607143288064
H            0.02718376774000       -3.32510095739912        2.18295989598716
H            0.07044516262109       -4.36216716250030        0.75323193589455
