24
 energy: -37.536416729098 gnorm: 0.000425218251 xtb: 6.7.1 (edcfbbe)
C            1.30090877240325       -0.25673276074014        0.18349587495929
C            0.30691695327758       -0.28753759853742        1.33943540955310
N            0.67176573430709        0.67898288798960        2.36266095532660
C            0.40340949908060        2.02810723088519        2.36375882365682
C            0.95910851412437        2.56006768570493        3.49632995443225
N            1.55902892171897        1.54365846627933        4.16152319722497
C            1.38267249147340        0.40747764890745        3.46222327926982
C            1.87977829609110       -0.92388605345955        3.85451748141303
C            2.26363681187906        1.67676650490618        5.41172285245365
N           -0.34441959986374        2.76013725975270        1.36783649293107
O           -0.70770132464886        2.16029609343022        0.38991732713982
O           -0.52754322926571        3.91905803085125        1.62639348434541
H            1.24535253188064        0.68980907890199       -0.34670111032714
H            1.04815248461592       -1.04542325856104       -0.51789301628577
H            2.31967230681273       -0.41450412083501        0.52925179466226
H           -0.68799928693849       -0.03910397338609        0.96604629217264
H            0.27934697138983       -1.27385098525696        1.80274700578347
H            0.94980566912080        3.57839625549000        3.83381771459496
H            1.05322107558121       -1.56644668928268        4.16341976992605
H            2.38239850323158       -1.41190953410570        3.02086564392182
H            2.57718309930575       -0.84911466254698        4.68325496492672
H            1.82208538942116        1.03016315345725        6.17023713335353
H            3.31582760117652        1.41726531495884        5.28830894935918
H            2.19662181382526        2.70848402519676        5.74865972520639
