15
 energy: -29.180170652136 gnorm: 0.000284588261 xtb: 6.7.1 (edcfbbe)
O            1.03430577319729       -0.25542581227563        0.02674255690521
N            0.38074162260121       -0.01110100346571        1.18646806826675
C            0.68897460104083        0.91921034948341        2.12820903223951
C           -0.25144349203188        0.79616169176146        3.11903858983695
N           -1.09413476148531       -0.20893289652802        2.73357171355189
C           -0.70630341405556       -0.70361668589877        1.54822418549898
C           -1.35776394368876       -1.79092500777412        0.80812891010153
O           -2.17042933749966       -0.68006570347253        3.39506518607814
Br          -0.49662875441759        1.71604816281658        4.73194109779198
H            1.79579864472713        0.34137247579931       -0.07144820121105
H            1.51935572765146        1.59351928680339        2.05833824959229
H           -1.32122882723937       -2.71659696235307        1.38324635127165
H           -2.40995783224412       -1.55845302691537        0.64440006345563
H           -0.86106957576068       -1.93900825647985       -0.14668889066621
H           -2.28664643079499       -0.19088661150109        4.23268308728675
