38
 energy: -63.870880988823 gnorm: 0.000604116354 xtb: 6.7.1 (edcfbbe)
Br           0.32405223447319        0.09092330508623        0.79292673413288
C            2.01512964551276        0.47540704490972       -0.03867959096872
C            2.14714305866813        1.47606116001993       -0.88797492709863
C            3.11590116628409       -0.47664779552131        0.36159733681578
N            3.13624648828484       -0.70478611539689        1.78689393546453
C            3.54118569621886        0.17199791456741        2.70107652319744
N            3.35648386317833       -0.29795588641522        3.93179938906116
C            2.82065774856686       -1.56790618784548        3.82426137870215
C            2.66184337615564       -1.82049158544167        2.44830947602215
C            2.11342072292976       -3.01290459622158        1.99338607548617
C            1.73985177626110       -3.93504189719824        2.94864772729493
C            1.90398378414941       -3.68732958453002        4.31384034369528
C            2.44262997327690       -2.50468153375751        4.77735527830700
C            3.91202362798622        0.31232197890045        5.10291053572914
C            5.44183286884863        0.47233736869746        4.88085512672736
O            5.88070951788990        0.28571513908353        3.76797029990369
C            6.24913009748793        0.86003388848599        6.03187725291806
C            5.71234211524026        1.19005459710442        7.28267980616123
C            6.54174402229960        1.56283459712652        8.31807168215332
C            7.91933694802019        1.60679860912952        8.12133106631909
C            8.47178610763658        1.28242501560947        6.88689026155061
C            7.63922109974850        0.91593357750073        5.85342651978797
Br           9.04815458763700        2.11582601344847        9.55095726921151
H            3.09389227974130        1.69062239551520       -1.35370796951598
H            1.31884369685495        2.10472465641628       -1.16277845737419
H            2.96153376234934       -1.44205634690037       -0.12892389544271
H            4.08055149731494       -0.07270248971180        0.04209100107903
H            3.93364404010544        1.14376087254295        2.46931924231995
H            1.97042470252237       -3.21311104818616        0.94439838005010
H            1.30652558845130       -4.87137468253022        2.63591451420685
H            1.59711548080347       -4.43995925744141        5.02222247856878
H            2.55675568507895       -2.32429372244777        5.83379267461001
H            3.48189371667901        1.30572926333960        5.26230454778624
H            3.70798646745904       -0.31642395590567        5.96849587326535
H            4.64806971899819        1.17268410224786        7.45631851707399
H            6.13055670073656        1.82102539363508        9.28115036610394
H            9.53997737684806        1.32305293801421        6.74477123710404
H            8.04568875929935        0.66291685407918        4.88615198959476
