59
 energy: -88.158016887815 gnorm: 0.000558371445 xtb: 6.7.1 (edcfbbe)
Br          -2.02627448066307       -0.04352943127165       -0.76068422615915
C           -0.16641709906105        0.09030022457571       -0.38636529095340
C            0.53919641276188        1.20730569386942       -0.80946378094292
C            1.89093154995940        1.29968708078689       -0.53666652057203
C            2.54603810654276        0.28220997236263        0.14869474244803
C            1.82497725288582       -0.83018253428225        0.56468489634129
C            0.47049821310954       -0.92938527556767        0.30457762831474
C            4.02016289103021        0.40059323714760        0.46371857517664
N            4.78988284713477        0.84111496880424       -0.67635844202577
C            5.38463594525483        2.06174246593631       -0.80901086100512
C            6.01324127020076        2.06817174209888       -2.00892303447576
N            5.79029441112858        0.85404014527320       -2.59771256291671
C            5.04560398038636        0.11549677294210       -1.77068456398745
C            4.52232884860918       -1.24777928160715       -1.97978591972329
C            6.43581435165105        0.46220659465383       -3.82872912078617
C            7.95127688464353        0.27288818631912       -3.64512441228446
C            8.43067178760228       -1.14472591560133       -3.23540068522699
C            7.67353317752962       -2.18626892316167       -4.04478661417362
C            7.71007020614027       -2.11364893682842       -5.43656186418325
C            7.02689428040586       -3.03167440995497       -6.21182165588395
C            6.29072876314677       -4.04050578733185       -5.61165483377625
C            6.25146067049613       -4.12517064167963       -4.23206712590669
C            6.93799253069407       -3.20556846188158       -3.45398389875444
C            9.93596753502047       -1.24569033079299       -3.48565750051169
C           10.50065654696198       -2.36385603902124       -4.09075471005714
C           11.86977036102092       -2.44971822006314       -4.28140434241069
C           12.69972803432615       -1.42694289812176       -3.85932827257371
C           12.15073028522778       -0.32182237595044       -3.23191942150135
C           10.78335286226985       -0.23463135341081       -3.04157190024840
C            8.21291763690712       -1.36106210939706       -1.72610990508536
O            7.41719697665760       -0.71484025640639       -1.06765798331325
N            8.96153081230576       -2.33500061065812       -1.18775304535927
H            0.03261202964506        1.99802876267301       -1.33954069167196
H            2.43498946013187        2.17604412508402       -0.85805781827766
H            2.31964241447831       -1.62317183695384        1.10517774460817
H           -0.08801145510435       -1.79073805193376        0.63471352008391
H            4.16808747469530        1.13153373170612        1.26368303603341
H            4.41141783948409       -0.56178040425646        0.80396164946980
H            5.32569910555478        2.81700590130132       -0.05266819530614
H            6.58857710540155        2.83546261241181       -2.48408921545717
H            4.94742127626702       -1.91644491510441       -1.23152639777011
H            3.43879420979716       -1.25410816562347       -1.86131984175876
H            4.77762190851888       -1.63144843496685       -2.96224668501678
H            5.97631629580270       -0.44815128821520       -4.21332562055673
H            6.26869263037632        1.26464919011282       -4.55227180254983
H            8.43693035783200        0.52294022160816       -4.58833470664001
H            8.29197162555857        0.98740516466168       -2.89590478497988
H            8.29584493392564       -1.34570205983497       -5.91831587667642
H            7.07452542662212       -2.96187518522158       -7.28739329005200
H            5.75904917488124       -4.75851145656728       -6.21591042311853
H            5.68939534069718       -4.91229775270625       -3.75293940193861
H            6.90041317038727       -3.29785429739858       -2.37911867875972
H            9.87367232714345       -3.17727532169975       -4.42434690025042
H           12.28442888102101       -3.32300072973447       -4.76099608779352
H           13.76564113772867       -1.49278866630192       -4.01065620258247
H           12.78824771182989        0.47674841351342       -2.88487212880160
H           10.38407705375849        0.62869314067478       -2.53156976506863
H            9.65435666694343       -2.82702505198487       -1.72705519830086
H            8.90930204433213       -2.50337093705640       -0.19590958437912
