42
 energy: -67.826318205156 gnorm: 0.000416308144 xtb: 6.7.1 (edcfbbe)
C            0.22107964110770        0.52910020782569       -0.09253716299927
C            0.88696306378381        1.77912389028862        0.45235548447447
O            1.49372594542744        2.55558926312215       -0.61236620324836
C            2.67072121595211        2.19258250997876       -1.02181729983039
O            3.39029968633452        1.32048818304081       -0.65937802546103
N            3.09832476298717        3.07491504571282       -2.10221542588570
C            2.42171439621365        4.12889267031016       -2.65389082907722
C            3.22254879186833        4.64289057421204       -3.62395264985139
N            4.36897933611063        3.90006912537434       -3.65270397155943
C            4.27737105301745        2.96084410814018       -2.72790117233778
C            5.50142785764113        4.10683264629481       -4.54061264669224
C            6.80292513518224        4.03461677381903       -3.78042220015480
C            7.22026233876102        5.11783759739149       -3.01387100830385
C            8.40951238206177        5.06615364537899       -2.31643978863905
C            9.21727003797993        3.92671385113187       -2.36370580908179
C            8.77749804283000        2.83703222544413       -3.11975495143686
C            7.58881599163873        2.88959588549228       -3.82050093643921
C           10.49044303256918        3.83349605542192       -1.66849105768335
C           11.16428165882135        4.85173175484247       -1.12667542544246
C           12.47111738332801        4.70455898509258       -0.45010741219675
O           13.08267387385424        5.63478974147395        0.01140023202318
O           12.89664838186415        3.43593899046983       -0.40237711667166
C           14.15377399550991        3.22836698185147        0.22957172192729
H           -0.50839043033461        0.78503165645064       -0.85676289670319
H           -0.28977990752367        0.02079108131313        0.71927617146847
H            0.96024698898815       -0.14807335182703       -0.51343342851946
H            0.15936003992003        2.45981564388075        0.89541366874310
H            1.66036781830652        1.52369241869575        1.18106522231746
H            1.44807491324424        4.42111317186840       -2.31701992329956
H            3.05530265231769        5.47043157769799       -4.28391601477324
H            5.01845681011702        2.21976485724776       -2.49252272116905
H            5.47831838937794        3.34037244732455       -5.32119561368491
H            5.38122918211909        5.08582300148226       -5.00909579068272
H            6.61556888767340        6.01239391214008       -2.97304126359085
H            8.71308188840609        5.91617402107236       -1.72782290414251
H            9.38467750752361        1.94618641100942       -3.16770742689280
H            7.27924853078417        2.04174142370447       -4.41427689663188
H           10.92673446089778        2.84485606304834       -1.61975630473321
H           10.81519114951288        5.87296685280892       -1.15789870770253
H           14.95120755456337        3.68960272781044       -0.35607224360472
H           14.15340099230243        3.66850281191436        1.22840514250863
H           14.29335456695951        2.15212256024815        0.28300558566316
