15
 energy: -16.164485986650 gnorm: 0.000373613106 xtb: 6.7.1 (edcfbbe)
N            1.20958499902423       -0.05269098069994       -0.02096680732440
C            0.26751521528021       -1.21605924834372       -0.16270943812240
C           -1.08614325928683       -0.66747987936753        0.27038404591234
C           -1.03021575703681        0.77135559747383       -0.23292111049269
C            0.38453615362243        1.19403924411524        0.14335482240978
H            1.82154095239855       -0.18025572097776        0.78918709086170
H            1.81178411876793        0.01744620974991       -0.84530526963794
H            0.60366328836114       -2.05830105654373        0.43891887106109
H            0.23605413391531       -1.51899045041254       -1.20936262886966
H           -1.90625195788585       -1.23102190459609       -0.16494374206711
H           -1.18975565630002       -0.69122988103423        1.35461016121322
H           -1.17536034850370        0.80598103427677       -1.31205773050353
H           -1.77702223656923        1.40691032956992        0.23400983011697
H            0.77348479083261        1.99692265211120       -0.47986887104950
H            0.42183556338005        1.50680405467868        1.18687077649213
