42
 energy: -65.552064571209 gnorm: 0.000689241880 xtb: 6.7.1 (edcfbbe)
C            0.69457210593467       -1.13735341224279       -2.78124688088222
O            0.20017553592140       -2.00266929867987       -1.75353768387320
C            0.65375332778293       -3.22663816912367       -1.68757347646589
O            1.49540034152234       -3.71887521103972       -2.40153122483652
C           -0.03900883528781       -4.01624835651256       -0.56632199204170
N            0.89485024483097       -4.60307178989426        0.36693871603569
C            1.77922170224187       -5.58734774594406        0.09258517628702
N            1.99758659171416       -6.08726184372048       -1.12001492548343
N            2.40387449962925       -5.96247313934149        1.23016048324211
C            1.89555889087295       -5.20858622750304        2.28253777310048
C            0.94201749168278       -4.34082101249850        1.73512522682117
C            0.25736581949299       -3.44303118914406        2.53643471278585
C            0.55660621093113       -3.45049049948393        3.88828649368244
C            1.50511888354817       -4.31667432225896        4.42667117686791
C            2.19522420723968       -5.21501937883826        3.63259740779914
N            3.40323521708621       -6.90338832321080        1.39567778779161
C            2.90491030673835       -8.26655427538445        1.61866096790059
C            2.13823223005804       -8.79408131108234        0.43478281502859
C            2.82264311524306       -9.21228488564993       -0.70391157879516
C            2.12664466385296       -9.62308753698144       -1.82814414164725
C            0.74114057273359       -9.61186364672043       -1.82697965909222
C            0.05454869657674       -9.19520924466241       -0.69908905342256
C            0.74950504547112       -8.78265856993820        0.42536473246486
H            0.78578373883672       -0.14679249941865       -2.34191195096350
H           -0.02520054660451       -1.11615579780534       -3.59966387613428
H            1.65891092354116       -1.49205561370598       -3.14525119577197
H           -0.70495233514818       -3.34961028893110       -0.01978748658452
H           -0.63095068330943       -4.80962644287708       -1.03978816837507
H            1.78220171508569       -5.50490373568935       -1.92644928655800
H            2.59598384551714       -6.89187926749426       -1.23879481144167
H           -0.47530541252974       -2.76012795831059        2.13891829532538
H            0.04175857035967       -2.76399175882994        4.54107604863077
H            1.70734292694967       -4.28314033735251        5.48506151149029
H            2.93925080043504       -5.88292783129047        4.03262639824954
H            4.05669227601754       -6.87219006346976        0.61631390816223
H            3.78437523155826       -8.87747255737025        1.82579621450209
H            2.27680738439835       -8.24144471451232        2.51133692663387
H            3.90403065287407       -9.24126094654078       -0.69807774177358
H            2.66541841697850       -9.96051666654368       -2.70009766686562
H            0.19900881411836       -9.93983787904358       -2.69980890767797
H           -1.02440842249046       -9.19910588321275       -0.69075579857433
H            0.21156523755595       -8.46814036773350        1.30865473438201
