60
 energy: -66.893289719403 gnorm: 0.000255282624 xtb: 6.7.1 (edcfbbe)
C            1.08444105848004       -0.28696040655035        0.52202559920703
C            1.05651988474588        1.17595541175968        0.94695118415601
C            1.36445761189375        2.14317788219523       -0.19642064486739
C            0.37290644578706        2.10519841378588       -1.36120739858071
C           -1.07256584940621        2.43937159683581       -0.99047244784608
C           -1.28319132374087        3.83091986053252       -0.39031906727192
C           -0.84481906865025        4.99356341399068       -1.28287115766929
C           -1.52327961043972        5.04951600469467       -2.65303479633653
C           -3.04893095717058        5.15598781023460       -2.61513753652650
C           -3.59294054343151        6.39276218357889       -1.89722876684017
C           -3.15370495119542        7.73191881667170       -2.49354665376046
C           -3.51519729710352        7.93279830400613       -3.96678130651063
C           -5.00675208627472        7.81194507595980       -4.28943680252378
C           -5.90844557672126        8.80065002586871       -3.54545580755628
C           -5.63128391333664       10.27331858064736       -3.84427605281926
C           -5.95147536158514       10.69167737871157       -5.28813675738837
N           -7.37836642583176       10.61971077677261       -5.53595296718810
C           -7.92107568028928        9.49088563923610       -6.01113191713750
C           -9.28526084839313        9.36632456714509       -6.17240545724390
C          -10.11110744704929       10.43173373262609       -5.83694075183537
C           -9.52864301034598       11.59635136956350       -5.34864082524703
C           -8.16002697616454       11.65727631001239       -5.20511535607260
H            0.27880144724996       -0.50889142371114       -0.17340834864704
H            0.96961895706701       -0.93351335634404        1.38883462642953
H            2.03017093908678       -0.52623025970297        0.04052637566004
H            0.08310543772188        1.41198692958660        1.38109179925654
H            1.80379154627174        1.32844765077924        1.72982420725512
H            1.40837772448553        3.15750707705880        0.20611623737133
H            2.35599683234318        1.90724166242515       -0.59144665726320
H            0.71870593492980        2.80163198919642       -2.12822452626254
H            0.38933701848760        1.10880404121442       -1.80730405241828
H           -1.68665595277177        2.33830862132740       -1.88845338638689
H           -1.43652245938920        1.70220312587001       -0.27213363347192
H           -2.34242620602853        3.94176113511309       -0.14660987142286
H           -0.73339151734418        3.89979994928842        0.55042524785456
H           -1.03446601163047        5.92627568459410       -0.74655999916524
H            0.23335437947610        4.93395435101573       -1.44265880261353
H           -1.11339981647451        5.89937689568871       -3.20372367451876
H           -1.26178877936837        4.15184263893159       -3.21633527980881
H           -3.41865321474406        5.13937736194432       -3.64330775948892
H           -3.45525098402070        4.27281949516767       -2.11928374736896
H           -4.68442046937090        6.33515907627429       -1.89208509318338
H           -3.27173872238431        6.36848936920119       -0.85488758672953
H           -3.58996957777710        8.53550182794641       -1.89502982280526
H           -2.07069410671033        7.82345216206319       -2.40107404492991
H           -3.14622702476086        8.91166159005696       -4.28328718068906
H           -2.98538007696399        7.19021532844867       -4.56466360960353
H           -5.12895469886761        7.92338060576899       -5.37080270891069
H           -5.33975275774292        6.80465825447240       -4.03791378359435
H           -6.95523890837592        8.56767059662963       -3.76685376903219
H           -5.77630797680917        8.65003175782286       -2.47428555310505
H           -6.21180533896293       10.89541962262102       -3.15936002447824
H           -4.57749769409445       10.48522943394227       -3.66882787359968
H           -5.61687253604622       11.71748953850017       -5.45239254570592
H           -5.43127108802723       10.03760587125447       -5.98839022934276
H           -7.24694171181124        8.68944475511101       -6.27327201127459
H           -9.69351581338362        8.44579741224284       -6.55735365975516
H          -11.18027511904491       10.35898166342411       -5.95565028992393
H          -10.13134405600004       12.44935690168046       -5.08176514495280
H           -7.66958567199420       12.54179791482685       -4.82640813550854
