34
 energy: -42.479726286720 gnorm: 0.000308608955 xtb: 6.7.1 (edcfbbe)
C            1.18451394032059        0.25425785332792        0.00362295977922
O            0.26921986163607       -0.54954753669990        0.71684132399172
C            0.67273075551029       -1.16879779730095        1.84181753292050
C           -0.26846938404281       -2.00725269772705        2.44916594236496
C            0.04227120421457       -2.68872207345888        3.60478521789488
C            1.29460900557291       -2.55288002035340        4.20069682457620
C            2.22805942408638       -1.72618001806352        3.59012217594202
C            1.93098371969475       -1.03791828710778        2.42815199708690
C            1.64638113308066       -3.30691756267676        5.45830106408804
C            1.87378769883879       -2.43660353219261        6.70029564780368
N            0.68230040745767       -1.72490226978545        7.26260887226849
C           -0.44920928168404       -2.64938335909227        7.45148462134568
C            1.06379842728274       -1.16643191145540        8.57503598280654
C            0.26388148822962       -0.61721420324139        6.38416023622517
H            0.64099300596427        0.61154264479080       -0.86863599757151
H            2.05280934422205       -0.32471107304280       -0.32304474639520
H            1.51492730221591        1.11051943367134        0.59903975951066
H           -1.23264241402035       -2.11616069830493        1.98046342623767
H           -0.69393076200622       -3.35349811956527        4.03578659538003
H            3.21651785814500       -1.62766590160261        4.01577321628723
H            2.68839453970067       -0.41645572066158        1.97927919499933
H            0.90068637130725       -4.07699629530475        5.65358392223549
H            2.59550145593127       -3.82394078958450        5.29348476043520
H            2.26722139269099       -3.07622039713865        7.49371842498211
H            2.62280999823782       -1.67711954735144        6.46792900923541
H           -0.13039862952033       -3.52463791897930        8.01499352075975
H           -1.24618057927304       -2.15147328926989        8.00103877959372
H           -0.84213119555512       -2.96527878839231        6.48839040702667
H            1.93304409771688       -0.51927229365102        8.47192788223301
H            0.24289778270031       -0.58138223165663        8.98625369939369
H            1.30423952052581       -1.96581153037620        9.27391525270325
H           -0.60239152643993       -0.11363090548786        6.80927380745191
H            1.07211458435289        0.10379025092947        6.27928137428678
H            0.00845945289903       -0.99652341318980        5.39594731212444
